
 *******************************************************************************

         NASA-GLENN CHEMICAL EQUILIBRIUM PROGRAM CEA2, MAY 21, 2004
                   BY  BONNIE MCBRIDE AND SANFORD GORDON
      REFS: NASA RP-1311, PART I, 1994 AND NASA RP-1311, PART II, 1996

 *******************************************************************************



 prob rocket p,bar=68,t,k=3000 ,supersonic,ac/at=5,10,
 equilibrium frozen
 reac
   fuel = CH4  moles=0.35 t(k)= 298.15
   oxid = N2O  moles=0.25 t(k)= 298.15
   oxid = O2   moles=0.75 t(k)= 298.15
 end

 OPTIONS: TP=F  HP=F  SP=F  TV=F  UV=F  SV=F  DETN=F  SHOCK=F  REFL=F  INCD=F
 RKT=T  FROZ=T  EQL=T  IONS=F  SIUNIT=T  DEBUGF=F  SHKDBG=F  DETDBG=F  TRNSPT=F

 T,K =  3000.0000

 TRACE= 0.00E+00  S/R= 0.000000E+00  H/R= 0.000000E+00  U/R= 0.000000E+00

 Pc,BAR =    68.000000

 Pc/P =

 SUBSONIC AREA RATIOS =

 SUPERSONIC AREA RATIOS =     5.0000    10.0000

 NFZ=  1  Mdot/Ac= 0.000000E+00  Ac/At= 0.000000E+00

    REACTANT           MOLES    (ENERGY/R),K   TEMP,K  DENSITY
        EXPLODED FORMULA
 F: CH4              0.350000  -0.897227E+04   298.15  0.0000
          C  1.00000  H  4.00000
 O: N2O              0.250000   0.981417E+04   298.15  0.0000
          N  2.00000  O  1.00000
 O: O2               0.750000  -0.154035E-05   298.15  0.0000
          O  2.00000

  SPECIES BEING CONSIDERED IN THIS SYSTEM
 (CONDENSED PHASE MAY HAVE NAME LISTED SEVERAL TIMES)
  LAST thermo.inp UPDATE:    9/09/04

  g 7/97  *C               tpis79  *CH              g 4/02  CH2            
  g 4/02  CH3              g11/00  CH2OH            g 7/00  CH3O           
  g 8/99  CH4              g 7/00  CH3OH            srd 01  CH3OOH         
  g 8/99  *CN              g12/99  CNN              tpis79  *CO            
  g 9/99  *CO2             tpis91  COOH             tpis91  *C2            
  g 6/01  C2H              g 1/91  C2H2,acetylene   g 5/01  C2H2,vinylidene
  g 4/02  CH2CO,ketene     g 3/02  O(CH)2O          srd 01  HO(CO)2OH      
  g 7/01  C2H3,vinyl       g 9/00  CH3CN            g 6/96  CH3CO,acetyl   
  g 1/00  C2H4             g 8/88  C2H4O,ethylen-o  g 8/88  CH3CHO,ethanal 
  g 6/00  CH3COOH          srd 01  OHCH2COOH        g 7/00  C2H5           
  g 7/00  C2H6             g 8/88  CH3N2CH3         g 8/88  C2H5OH         
  g 7/00  CH3OCH3          srd 01  CH3O2CH3         g 7/00  CCN            
  tpis91  CNC              srd 01  OCCN             tpis79  C2N2           
  g 8/00  C2O              tpis79  *C3              n 4/98  C3H3,1-propynl 
  n 4/98  C3H3,2-propynl   g 2/00  C3H4,allene      g 1/00  C3H4,propyne   
  g 5/90  C3H4,cyclo-      g 3/01  C3H5,allyl       g 2/00  C3H6,propylene 
  g 1/00  C3H6,cyclo-      g 6/01  C3H6O,propylox   g 6/97  C3H6O,acetone  
  g 1/02  C3H6O,propanal   g 7/01  C3H7,n-propyl    g 9/85  C3H7,i-propyl  
  g 2/00  C3H8             g 2/00  C3H8O,1propanol  g 2/00  C3H8O,2propanol
  srd 01  CNCOCN           g 7/88  C3O2             g tpis  *C4            
  g 7/01  C4H2,butadiyne   g 8/00  C4H4,1,3-cyclo-  n10/92  C4H6,butadiene 
  n10/93  C4H6,1butyne     n10/93  C4H6,2butyne     g 8/00  C4H6,cyclo-    
  n 4/88  C4H8,1-butene    n 4/88  C4H8,cis2-buten  n 4/88  C4H8,tr2-butene
  n 4/88  C4H8,isobutene   g 8/00  C4H8,cyclo-      g10/00  (CH3COOH)2     
  n10/84  C4H9,n-butyl     n10/84  C4H9,i-butyl     g 1/93  C4H9,s-butyl   
  g 1/93  C4H9,t-butyl     g12/00  C4H10,n-butane   g 8/00  C4H10,isobutane
  g 6/01  C4N2             g 8/00  *C5              g 5/90  C5H6,1,3cyclo- 
  g 1/93  C5H8,cyclo-      n 4/87  C5H10,1-pentene  g 2/01  C5H10,cyclo-   
  n10/84  C5H11,pentyl     g 1/93  C5H11,t-pentyl   n10/85  C5H12,n-pentane
  n10/85  C5H12,i-pentane  n10/85  CH3C(CH3)2CH3    g 2/93  C6H2           
  g11/00  C6H5,phenyl      g 8/00  C6H5O,phenoxy    g 8/00  C6H6           
  g 8/00  C6H5OH,phenol    g 1/93  C6H10,cyclo-     n 4/87  C6H12,1-hexene 
  g 6/90  C6H12,cyclo-     n10/83  C6H13,n-hexyl    g 6/01  C6H14,n-hexane 
  g 7/01  C7H7,benzyl      g 1/93  C7H8             g12/00  C7H8O,cresol-mx
  n 4/87  C7H14,1-heptene  n10/83  C7H15,n-heptyl   n10/85  C7H16,n-heptane
  n10/85  C7H16,2-methylh  n 4/89  C8H8,styrene     n10/86  C8H10,ethylbenz
  n 4/87  C8H16,1-octene   n10/83  C8H17,n-octyl    n 4/85  C8H18,n-octane 
  n 4/85  C8H18,isooctane  n10/83  C9H19,n-nonyl    g 3/01  C10H8,naphthale
  n10/83  C10H21,n-decyl   g 8/00  C12H9,o-bipheny  g 8/00  C12H10,biphenyl
  g 6/97  *H               g 6/01  HCN              g 1/01  HCO            
  tpis89  HCCN             g 6/01  HCCO             g 6/01  HNC            
  g 7/00  HNCO             g10/01  HNO              tpis89  HNO2           
  g 5/99  HNO3             g 4/02  HO2              tpis78  *H2            
  g 5/01  HCHO,formaldehy  g 6/01  HCOOH            g 8/89  H2O            
  g 6/99  H2O2             g 6/01  (HCOOH)2         g 5/97  *N             
  g 6/01  NCO              g 4/99  *NH              g 3/01  NH2            
  tpis89  NH3              tpis89  NH2OH            tpis89  *NO            
  g 4/99  NO2              j12/64  NO3              tpis78  *N2            
  g 6/01  NCN              g 5/99  N2H2             tpis89  NH2NO2         
  g 4/99  N2H4             g 4/99  N2O              g 4/99  N2O3           
  tpis89  N2O4             g 4/99  N2O5             tpis89  N3             
  g 4/99  N3H              g 5/97  *O               g 4/02  *OH            
  tpis89  *O2              g 8/01  O3               n 4/83  C(gr)          
  n 4/83  C(gr)            n 4/83  C(gr)            g11/99  H2O(cr)        
  g 8/01  H2O(L)           g 8/01  H2O(L)         

 O/F =   6.233868

                       EFFECTIVE FUEL     EFFECTIVE OXIDANT        MIXTURE
 ENTHALPY                  h(2)/R              h(1)/R               h0/R
 (KG-MOL)(K)/KG       -0.55928246E+03      0.70096595E+02     -0.16907908E+02

 KG-FORM.WT./KG             bi(2)               bi(1)               b0i
  *C                   0.62334580E-01      0.00000000E+00      0.86170474E-02
  *H                   0.24933832E+00      0.00000000E+00      0.34468189E-01
  *N                   0.00000000E+00      0.14284776E-01      0.12310068E-01
  *O                   0.00000000E+00      0.49996715E-01      0.43085237E-01

 POINT ITN      T            C           H           N           O 

   1   22    3000.000     -18.946     -10.790     -13.008     -14.127

 Pinf/Pt = 1.732413
   2    4    2829.338     -19.730     -11.118     -13.165     -14.285

 Pinf/Pt = 1.734221
   2    2    2829.017     -19.732     -11.119     -13.166     -14.286

   3    5    1953.008     -26.417     -13.590     -13.908     -15.000

   3    2    1961.447     -26.321     -13.557     -13.902     -14.994

   4    4    1685.720     -29.993     -14.813     -14.114     -15.190

   4    2    1681.884     -30.053     -14.834     -14.117     -15.193






              THEORETICAL ROCKET PERFORMANCE ASSUMING EQUILIBRIUM

           COMPOSITION DURING EXPANSION FROM INFINITE AREA COMBUSTOR
                         AT AN ASSIGNED TEMPERATURE  

 Pin =   986.3 PSIA
 CASE =                

             REACTANT                       MOLES         ENERGY      TEMP
                                                         KJ/KG-MOL      K
 FUEL        CH4                          0.3500000    -74600.000    298.150
 OXIDANT     N2O                          0.2500000     81600.000    298.150
 OXIDANT     O2                           0.7500000        -0.000    298.150

 O/F=    6.23387  %FUEL= 13.823864  R,EQ.RATIO= 0.800000  PHI,EQ.RATIO= 0.800000

                 CHAMBER   THROAT     EXIT     EXIT
 Pinf/P            1.0000   1.7342   28.913   74.020
 P, BAR            68.000   39.211   2.3519  0.91867
 T, K             3000.00  2829.02  1961.45  1681.88
 RHO, KG/CU M    7.2951 0 4.4953 0 3.9668-1 1.8086-1
 H, KJ/KG        -2397.41 -2893.98 -4948.17 -5465.04
 U, KJ/KG        -3329.53 -3766.23 -5541.06 -5972.98
 G, KJ/KG        -32524.9 -31304.4 -24646.0 -22355.3
 S, KJ/(KG)(K)    10.0425  10.0425  10.0425  10.0425

 M, (1/n)          26.760   26.967   27.507   27.531
 (dLV/dLP)t      -1.01142 -1.00842 -1.00037 -1.00007
 (dLV/dLT)p        1.2512   1.1973   1.0133   1.0028
 Cp, KJ/(KG)(K)    3.7094   3.3960   1.9579   1.7833
 GAMMAs            1.1360   1.1386   1.1879   1.2052
 SON VEL,M/SEC     1029.0    996.6    839.2    782.4
 MACH NUMBER        0.000    1.000    2.691    3.166

 PERFORMANCE PARAMETERS

 Ae/At                     1.00000   5.0000   10.000
 CSTAR, M/SEC               1517.9   1517.9   1517.9
 CF                         0.6565   1.4880   1.6318
 Ivac, M/SEC                1871.8   2521.2   2682.0
 Isp, M/SEC                  996.6   2258.7   2476.9


 MOLE FRACTIONS

 *CO              0.02468  0.01747  0.00043  0.00004
 *CO2             0.20591  0.21490  0.23660  0.23720
 *H               0.00161  0.00104  0.00001  0.00000
 HNO2             0.00001  0.00000  0.00000  0.00000
 HO2              0.00016  0.00010  0.00000  0.00000
 *H2              0.00705  0.00514  0.00019  0.00002
 H2O              0.43533  0.44491  0.47240  0.47409
 H2O2             0.00002  0.00001  0.00000  0.00000
 *NO              0.01558  0.01263  0.00237  0.00094
 NO2              0.00005  0.00004  0.00001  0.00000
 *N2              0.15688  0.15964  0.16812  0.16898
 *O               0.00460  0.00326  0.00011  0.00001
 *OH              0.03578  0.02820  0.00290  0.00072
 *O2              0.11233  0.11264  0.11685  0.11799

  * THERMODYNAMIC PROPERTIES FITTED TO 20000.K

    PRODUCTS WHICH WERE CONSIDERED BUT WHOSE MOLE FRACTIONS
    WERE LESS THAN 5.000000E-06 FOR ALL ASSIGNED CONDITIONS

 *C              *CH             CH2             CH3             CH2OH          
 CH3O            CH4             CH3OH           CH3OOH          *CN            
 CNN             COOH            *C2             C2H             C2H2,acetylene 
 C2H2,vinylidene CH2CO,ketene    O(CH)2O         HO(CO)2OH       C2H3,vinyl     
 CH3CN           CH3CO,acetyl    C2H4            C2H4O,ethylen-o CH3CHO,ethanal 
 CH3COOH         OHCH2COOH       C2H5            C2H6            CH3N2CH3       
 C2H5OH          CH3OCH3         CH3O2CH3        CCN             CNC            
 OCCN            C2N2            C2O             *C3             C3H3,1-propynl 
 C3H3,2-propynl  C3H4,allene     C3H4,propyne    C3H4,cyclo-     C3H5,allyl     
 C3H6,propylene  C3H6,cyclo-     C3H6O,propylox  C3H6O,acetone   C3H6O,propanal 
 C3H7,n-propyl   C3H7,i-propyl   C3H8            C3H8O,1propanol C3H8O,2propanol
 CNCOCN          C3O2            *C4             C4H2,butadiyne  C4H4,1,3-cyclo-
 C4H6,butadiene  C4H6,1butyne    C4H6,2butyne    C4H6,cyclo-     C4H8,1-butene  
 C4H8,cis2-buten C4H8,tr2-butene C4H8,isobutene  C4H8,cyclo-     (CH3COOH)2     
 C4H9,n-butyl    C4H9,i-butyl    C4H9,s-butyl    C4H9,t-butyl    C4H10,n-butane 
 C4H10,isobutane C4N2            *C5             C5H6,1,3cyclo-  C5H8,cyclo-    
 C5H10,1-pentene C5H10,cyclo-    C5H11,pentyl    C5H11,t-pentyl  C5H12,n-pentane
 C5H12,i-pentane CH3C(CH3)2CH3   C6H2            C6H5,phenyl     C6H5O,phenoxy  
 C6H6            C6H5OH,phenol   C6H10,cyclo-    C6H12,1-hexene  C6H12,cyclo-   
 C6H13,n-hexyl   C6H14,n-hexane  C7H7,benzyl     C7H8            C7H8O,cresol-mx
 C7H14,1-heptene C7H15,n-heptyl  C7H16,n-heptane C7H16,2-methylh C8H8,styrene   
 C8H10,ethylbenz C8H16,1-octene  C8H17,n-octyl   C8H18,n-octane  C8H18,isooctane
 C9H19,n-nonyl   C10H8,naphthale C10H21,n-decyl  C12H9,o-bipheny C12H10,biphenyl
 HCN             HCO             HCCN            HCCO            HNC            
 HNCO            HNO             HNO3            HCHO,formaldehy HCOOH          
 (HCOOH)2        *N              NCO             *NH             NH2            
 NH3             NH2OH           NO3             NCN             N2H2           
 NH2NO2          N2H4            N2O             N2O3            N2O4           
 N2O5            N3              N3H             O3              C(gr)          
 H2O(cr)         H2O(L)         





           THEORETICAL ROCKET PERFORMANCE ASSUMING FROZEN COMPOSITION
                         AT AN ASSIGNED TEMPERATURE  

 Pin =   986.3 PSIA
 CASE =                

             REACTANT                       MOLES         ENERGY      TEMP
                                                         KJ/KG-MOL      K
 FUEL        CH4                          0.3500000    -74600.000    298.150
 OXIDANT     N2O                          0.2500000     81600.000    298.150
 OXIDANT     O2                           0.7500000        -0.000    298.150

 O/F=    6.23387  %FUEL= 13.823864  R,EQ.RATIO= 0.800000  PHI,EQ.RATIO= 0.800000

                 CHAMBER   THROAT     EXIT     EXIT
 Pinf/P            1.0000   1.7702   31.932   82.773
 P, BAR            68.000   38.415   2.1295  0.82153
 T, K             3000.00  2732.10  1662.88  1396.29
 RHO, KG/CU M    7.2951 0 4.5253 0 4.1216-1 1.8936-1
 H, KJ/KG        -2397.41 -2905.63 -4847.99 -5299.77
 U, KJ/KG        -3329.53 -3754.52 -5364.66 -5733.61
 G, KJ/KG        -32524.9 -30342.8 -21547.4 -19322.0
 S, KJ/(KG)(K)    10.0425  10.0425  10.0425  10.0425

 M, (1/n)          26.760   26.760   26.760   26.760
 Cp, KJ/(KG)(K)    1.9085   1.8849   1.7264   1.6606
 GAMMAs            1.1945   1.1974   1.2195   1.2302
 SON VEL,M/SEC     1055.2   1008.2    793.8    730.5
 MACH NUMBER        0.000    1.000    2.789    3.298

 PERFORMANCE PARAMETERS

 Ae/At                     1.00000   5.0000   10.000
 CSTAR, M/SEC               1490.5   1490.5   1490.5
 CF                         0.6764   1.4853   1.6165
 Ivac, M/SEC                1850.2   2447.2   2589.4
 Isp, M/SEC                 1008.2   2213.9   2409.3

 MOLE FRACTIONS

 *CO             0.02468   *CO2            0.20591   *H              0.00161
 HNO2            0.00001   HO2             0.00016   *H2             0.00705
 H2O             0.43533   H2O2            0.00002   *NO             0.01558
 NO2             0.00005   *N2             0.15688   *O              0.00460
 *OH             0.03578   *O2             0.11233

  * THERMODYNAMIC PROPERTIES FITTED TO 20000.K

    PRODUCTS WHICH WERE CONSIDERED BUT WHOSE MOLE FRACTIONS
    WERE LESS THAN 5.000000E-06 FOR ALL ASSIGNED CONDITIONS

 *C              *CH             CH2             CH3             CH2OH          
 CH3O            CH4             CH3OH           CH3OOH          *CN            
 CNN             COOH            *C2             C2H             C2H2,acetylene 
 C2H2,vinylidene CH2CO,ketene    O(CH)2O         HO(CO)2OH       C2H3,vinyl     
 CH3CN           CH3CO,acetyl    C2H4            C2H4O,ethylen-o CH3CHO,ethanal 
 CH3COOH         OHCH2COOH       C2H5            C2H6            CH3N2CH3       
 C2H5OH          CH3OCH3         CH3O2CH3        CCN             CNC            
 OCCN            C2N2            C2O             *C3             C3H3,1-propynl 
 C3H3,2-propynl  C3H4,allene     C3H4,propyne    C3H4,cyclo-     C3H5,allyl     
 C3H6,propylene  C3H6,cyclo-     C3H6O,propylox  C3H6O,acetone   C3H6O,propanal 
 C3H7,n-propyl   C3H7,i-propyl   C3H8            C3H8O,1propanol C3H8O,2propanol
 CNCOCN          C3O2            *C4             C4H2,butadiyne  C4H4,1,3-cyclo-
 C4H6,butadiene  C4H6,1butyne    C4H6,2butyne    C4H6,cyclo-     C4H8,1-butene  
 C4H8,cis2-buten C4H8,tr2-butene C4H8,isobutene  C4H8,cyclo-     (CH3COOH)2     
 C4H9,n-butyl    C4H9,i-butyl    C4H9,s-butyl    C4H9,t-butyl    C4H10,n-butane 
 C4H10,isobutane C4N2            *C5             C5H6,1,3cyclo-  C5H8,cyclo-    
 C5H10,1-pentene C5H10,cyclo-    C5H11,pentyl    C5H11,t-pentyl  C5H12,n-pentane
 C5H12,i-pentane CH3C(CH3)2CH3   C6H2            C6H5,phenyl     C6H5O,phenoxy  
 C6H6            C6H5OH,phenol   C6H10,cyclo-    C6H12,1-hexene  C6H12,cyclo-   
 C6H13,n-hexyl   C6H14,n-hexane  C7H7,benzyl     C7H8            C7H8O,cresol-mx
 C7H14,1-heptene C7H15,n-heptyl  C7H16,n-heptane C7H16,2-methylh C8H8,styrene   
 C8H10,ethylbenz C8H16,1-octene  C8H17,n-octyl   C8H18,n-octane  C8H18,isooctane
 C9H19,n-nonyl   C10H8,naphthale C10H21,n-decyl  C12H9,o-bipheny C12H10,biphenyl
 HCN             HCO             HCCN            HCCO            HNC            
 HNCO            HNO             HNO3            HCHO,formaldehy HCOOH          
 (HCOOH)2        *N              NCO             *NH             NH2            
 NH3             NH2OH           NO3             NCN             N2H2           
 NH2NO2          N2H4            N2O             N2O3            N2O4           
 N2O5            N3              N3H             O3              C(gr)          
 H2O(cr)         H2O(L)         



