
 *******************************************************************************

         NASA-GLENN CHEMICAL EQUILIBRIUM PROGRAM CEA2, MAY 21, 2004
                   BY  BONNIE MCBRIDE AND SANFORD GORDON
      REFS: NASA RP-1311, PART I, 1994 AND NASA RP-1311, PART II, 1996

 *******************************************************************************



 prob rocket fac p,bar=43.0,ac/at=2.56,
 o/f=1.57704411799, pi/pe=1, eq
 react
 	oxid=O2  wt=0.976204283892	t,k=3819.1
 	oxid=H2O wt=0.0142774296648	t,k=3819.1
 	oxid=CO2 wt=0.00951828644323	t,k=3819.1
 	fuel=PMMA  wt=100 t,k=293.15
 	h,kj/mol=-442.14  C 5 H 8 O 2
 end

 OPTIONS: TP=F  HP=F  SP=F  TV=F  UV=F  SV=F  DETN=F  SHOCK=F  REFL=F  INCD=F
 RKT=T  FROZ=F  EQL=T  IONS=F  SIUNIT=T  DEBUGF=F  SHKDBG=F  DETDBG=F  TRNSPT=F

 TRACE= 0.00E+00  S/R= 0.000000E+00  H/R= 0.000000E+00  U/R= 0.000000E+00

 Pc,BAR =    43.000000

 Pc/P =     1.0000

 SUBSONIC AREA RATIOS =

 SUPERSONIC AREA RATIOS =

 NFZ=  1  Mdot/Ac= 0.000000E+00  Ac/At= 2.560000E+00

    REACTANT          WT.FRAC   (ENERGY/R),K   TEMP,K  DENSITY
        EXPLODED FORMULA
 O: O2               0.976204   0.158135E+05  3819.10  0.0000
          O  2.00000
 O: H2O              0.014277  -0.801901E+04  3819.10  0.0000
          H  2.00000  O  1.00000
 O: CO2              0.009518  -0.227817E+05  3819.10  0.0000
          C  1.00000  O  2.00000
 F: PMMA             1.000000  -0.531769E+05   293.15  0.0000
          C  5.00000  H  8.00000  O  2.00000

  SPECIES BEING CONSIDERED IN THIS SYSTEM
 (CONDENSED PHASE MAY HAVE NAME LISTED SEVERAL TIMES)
  LAST thermo.inp UPDATE:    9/09/04

  g 7/97  *C               tpis79  *CH              g 4/02  CH2            
  g 4/02  CH3              g11/00  CH2OH            g 7/00  CH3O           
  g 8/99  CH4              g 7/00  CH3OH            srd 01  CH3OOH         
  tpis79  *CO              g 9/99  *CO2             tpis91  COOH           
  tpis91  *C2              g 6/01  C2H              g 1/91  C2H2,acetylene 
  g 5/01  C2H2,vinylidene  g 4/02  CH2CO,ketene     g 3/02  O(CH)2O        
  srd 01  HO(CO)2OH        g 7/01  C2H3,vinyl       g 6/96  CH3CO,acetyl   
  g 1/00  C2H4             g 8/88  C2H4O,ethylen-o  g 8/88  CH3CHO,ethanal 
  g 6/00  CH3COOH          srd 01  OHCH2COOH        g 7/00  C2H5           
  g 7/00  C2H6             g 8/88  C2H5OH           g 7/00  CH3OCH3        
  srd 01  CH3O2CH3         g 8/00  C2O              tpis79  *C3            
  n 4/98  C3H3,1-propynl   n 4/98  C3H3,2-propynl   g 2/00  C3H4,allene    
  g 1/00  C3H4,propyne     g 5/90  C3H4,cyclo-      g 3/01  C3H5,allyl     
  g 2/00  C3H6,propylene   g 1/00  C3H6,cyclo-      g 6/01  C3H6O,propylox 
  g 6/97  C3H6O,acetone    g 1/02  C3H6O,propanal   g 7/01  C3H7,n-propyl  
  g 9/85  C3H7,i-propyl    g 2/00  C3H8             g 2/00  C3H8O,1propanol
  g 2/00  C3H8O,2propanol  g 7/88  C3O2             g tpis  *C4            
  g 7/01  C4H2,butadiyne   g 8/00  C4H4,1,3-cyclo-  n10/92  C4H6,butadiene 
  n10/93  C4H6,1butyne     n10/93  C4H6,2butyne     g 8/00  C4H6,cyclo-    
  n 4/88  C4H8,1-butene    n 4/88  C4H8,cis2-buten  n 4/88  C4H8,tr2-butene
  n 4/88  C4H8,isobutene   g 8/00  C4H8,cyclo-      g10/00  (CH3COOH)2     
  n10/84  C4H9,n-butyl     n10/84  C4H9,i-butyl     g 1/93  C4H9,s-butyl   
  g 1/93  C4H9,t-butyl     g12/00  C4H10,n-butane   g 8/00  C4H10,isobutane
  g 8/00  *C5              g 5/90  C5H6,1,3cyclo-   g 1/93  C5H8,cyclo-    
  n 4/87  C5H10,1-pentene  g 2/01  C5H10,cyclo-     n10/84  C5H11,pentyl   
  g 1/93  C5H11,t-pentyl   n10/85  C5H12,n-pentane  n10/85  C5H12,i-pentane
  n10/85  CH3C(CH3)2CH3    g 2/93  C6H2             g11/00  C6H5,phenyl    
  g 8/00  C6H5O,phenoxy    g 8/00  C6H6             g 8/00  C6H5OH,phenol  
  g 1/93  C6H10,cyclo-     n 4/87  C6H12,1-hexene   g 6/90  C6H12,cyclo-   
  n10/83  C6H13,n-hexyl    g 6/01  C6H14,n-hexane   g 7/01  C7H7,benzyl    
  g 1/93  C7H8             g12/00  C7H8O,cresol-mx  n 4/87  C7H14,1-heptene
  n10/83  C7H15,n-heptyl   n10/85  C7H16,n-heptane  n10/85  C7H16,2-methylh
  n 4/89  C8H8,styrene     n10/86  C8H10,ethylbenz  n 4/87  C8H16,1-octene 
  n10/83  C8H17,n-octyl    n 4/85  C8H18,n-octane   n 4/85  C8H18,isooctane
  n10/83  C9H19,n-nonyl    g 3/01  C10H8,naphthale  n10/83  C10H21,n-decyl 
  g 8/00  C12H9,o-bipheny  g 8/00  C12H10,biphenyl  g 6/97  *H             
  g 1/01  HCO              g 6/01  HCCO             g 4/02  HO2            
  tpis78  *H2              g 5/01  HCHO,formaldehy  g 6/01  HCOOH          
  g 8/89  H2O              g 6/99  H2O2             g 6/01  (HCOOH)2       
  g 5/97  *O               g 4/02  *OH              tpis89  *O2            
  g 8/01  O3               n 4/83  C(gr)            n 4/83  C(gr)          
  n 4/83  C(gr)            g11/99  H2O(cr)          g 8/01  H2O(L)         
  g 8/01  H2O(L)         

 O/F =   1.577044

                       EFFECTIVE FUEL     EFFECTIVE OXIDANT        MIXTURE
 ENTHALPY                  h(2)/R              h(1)/R               h0/R
 (KG-MOL)(K)/KG       -0.53115398E+03      0.47114789E+03      0.82213193E+02

 KG-FORM.WT./KG             bi(2)               bi(1)               b0i
  *O                   0.19976863E-01      0.62240130E-01      0.45840229E-01
  *H                   0.79907451E-01      0.15850356E-02      0.31977381E-01
  *C                   0.49942157E-01      0.21627800E-03      0.19511981E-01

 POINT ITN      T            O           H           C 
   1   23    3821.465     -15.226     -10.361     -15.714
   2    2    3812.462     -15.245     -10.381     -15.745
 Pinf/Pt = 1.732476
   3    3    3633.608     -15.446     -10.582     -16.099
 Pinf/Pt = 1.728720
   3    2    3634.284     -15.445     -10.581     -16.098
   4    2    3803.280     -15.255     -10.391     -15.762
   4    2    3801.559     -15.257     -10.393     -15.765
   4    2    3801.378     -15.257     -10.393     -15.766
   4    1    3801.376     -15.257     -10.393     -15.766
   2    2    3816.012     -15.238     -10.373     -15.733
 Pinf/Pt = 1.732539
   3    3    3636.783     -15.438     -10.574     -16.087
 Pinf/Pt = 1.728781
   3    2    3637.461     -15.438     -10.574     -16.085
   4    2    3806.810     -15.247     -10.383     -15.750
   4    2    3805.086     -15.249     -10.385     -15.753
   4    2    3804.904     -15.249     -10.385     -15.754
   4    1    3804.902     -15.249     -10.385     -15.754
 END OF CHAMBER ITERATIONS

 WARNING!!  ASSIGNED pip =   1.00000 IS NOT PERMITTED
 TO BE LESS THAN  Pinj/Pc =  1.06546. POINT OMITTED (ROCKET)





              THEORETICAL ROCKET PERFORMANCE ASSUMING EQUILIBRIUM

            COMPOSITION DURING EXPANSION FROM FINITE AREA COMBUSTOR

 Pin =   623.7 PSIA
 Ac/At =  2.5600      Pinj/Pinf =  1.031219
 CASE =                

             REACTANT                    WT FRACTION      ENERGY      TEMP
                                          (SEE NOTE)     KJ/KG-MOL      K  
 OXIDANT     O2                           0.9762043    131481.365   3819.100
 OXIDANT     H2O                          0.0142774    -66674.151   3819.100
 OXIDANT     CO2                          0.0095183   -189418.996   3819.100
 FUEL        PMMA                         1.0000000   -442140.000    293.150

 O/F=    1.57704  %FUEL= 38.804147  R,EQ.RATIO= 1.200096  PHI,EQ.RATIO= 1.245655

                 INJECTOR  COMB END  THROAT
 Pinj/P            1.0000   1.0655   1.7828
 P, BAR            43.000   40.358   24.120
 T, K             3821.47  3804.90  3637.46
 RHO, KG/CU M    3.2037 0 3.0215 0 1.9185 0
 H, KJ/KG          683.56   639.84  -27.197
 U, KJ/KG         -658.62  -695.85 -1284.46
 G, KJ/KG        -42447.0 -42344.9 -41120.3
 S, KJ/(KG)(K)    11.2864  11.2972  11.2972

 M, (1/n)          23.673   23.685   24.055
 (dLV/dLP)t      -1.06609 -1.06603 -1.06247
 (dLV/dLT)p        2.0788   2.0827   2.0751
 Cp, KJ/(KG)(K)    8.1568   8.2026   8.3601
 GAMMAs            1.1363   1.1358   1.1307
 SON VEL,M/SEC     1235.0   1231.7   1192.3
 MACH NUMBER        0.000    0.240    1.000

 PERFORMANCE PARAMETERS

 Ae/At                      2.5600   1.0000
 CSTAR, M/SEC               1823.0   1823.0
 CF                         0.1622   0.6540
 Ivac, M/SEC                4812.6   2246.8
 Isp, M/SEC                  295.7   1192.3


 MOLE FRACTIONS

 *CO              0.32105  0.32075  0.31448
 *CO2             0.14081  0.14136  0.15486
 COOH             0.00002  0.00002  0.00001
 *H               0.04441  0.04440  0.04040
 HCO              0.00002  0.00002  0.00001
 HO2              0.00020  0.00019  0.00014
 *H2              0.06378  0.06374  0.06181
 H2O              0.24355  0.24403  0.25793
 H2O2             0.00002  0.00002  0.00001
 *O               0.03615  0.03601  0.03129
 *OH              0.09766  0.09717  0.08916
 *O2              0.05232  0.05229  0.04989

  * THERMODYNAMIC PROPERTIES FITTED TO 20000.K

    PRODUCTS WHICH WERE CONSIDERED BUT WHOSE MOLE FRACTIONS
    WERE LESS THAN 5.000000E-06 FOR ALL ASSIGNED CONDITIONS

 *C              *CH             CH2             CH3             CH2OH          
 CH3O            CH4             CH3OH           CH3OOH          *C2            
 C2H             C2H2,acetylene  C2H2,vinylidene CH2CO,ketene    O(CH)2O        
 HO(CO)2OH       C2H3,vinyl      CH3CO,acetyl    C2H4            C2H4O,ethylen-o
 CH3CHO,ethanal  CH3COOH         OHCH2COOH       C2H5            C2H6           
 C2H5OH          CH3OCH3         CH3O2CH3        C2O             *C3            
 C3H3,1-propynl  C3H3,2-propynl  C3H4,allene     C3H4,propyne    C3H4,cyclo-    
 C3H5,allyl      C3H6,propylene  C3H6,cyclo-     C3H6O,propylox  C3H6O,acetone  
 C3H6O,propanal  C3H7,n-propyl   C3H7,i-propyl   C3H8            C3H8O,1propanol
 C3H8O,2propanol C3O2            *C4             C4H2,butadiyne  C4H4,1,3-cyclo-
 C4H6,butadiene  C4H6,1butyne    C4H6,2butyne    C4H6,cyclo-     C4H8,1-butene  
 C4H8,cis2-buten C4H8,tr2-butene C4H8,isobutene  C4H8,cyclo-     (CH3COOH)2     
 C4H9,n-butyl    C4H9,i-butyl    C4H9,s-butyl    C4H9,t-butyl    C4H10,n-butane 
 C4H10,isobutane *C5             C5H6,1,3cyclo-  C5H8,cyclo-     C5H10,1-pentene
 C5H10,cyclo-    C5H11,pentyl    C5H11,t-pentyl  C5H12,n-pentane C5H12,i-pentane
 CH3C(CH3)2CH3   C6H2            C6H5,phenyl     C6H5O,phenoxy   C6H6           
 C6H5OH,phenol   C6H10,cyclo-    C6H12,1-hexene  C6H12,cyclo-    C6H13,n-hexyl  
 C6H14,n-hexane  C7H7,benzyl     C7H8            C7H8O,cresol-mx C7H14,1-heptene
 C7H15,n-heptyl  C7H16,n-heptane C7H16,2-methylh C8H8,styrene    C8H10,ethylbenz
 C8H16,1-octene  C8H17,n-octyl   C8H18,n-octane  C8H18,isooctane C9H19,n-nonyl  
 C10H8,naphthale C10H21,n-decyl  C12H9,o-bipheny C12H10,biphenyl HCCO           
 HCHO,formaldehy HCOOH           (HCOOH)2        O3              C(gr)          
 H2O(cr)         H2O(L)         

 NOTE. WEIGHT FRACTION OF FUEL IN TOTAL FUELS AND OF OXIDANT IN TOTAL OXIDANTS






 WARNING!!  ASSIGNED pip =   0.00000 IS NOT PERMITTED
 TO BE LESS THAN  Pinj/Pc =  1.06546. POINT OMITTED (ROCKET)





              THEORETICAL ROCKET PERFORMANCE ASSUMING EQUILIBRIUM

            COMPOSITION DURING EXPANSION FROM FINITE AREA COMBUSTOR

 Pin =   623.7 PSIA
 Ac/At =  2.5600      Pinj/Pinf =  1.031219
 CASE =                

             REACTANT                    WT FRACTION      ENERGY      TEMP
                                          (SEE NOTE)     KJ/KG-MOL      K  
 OXIDANT     O2                           0.9762043    131481.365   3819.100
 OXIDANT     H2O                          0.0142774    -66674.151   3819.100
 OXIDANT     CO2                          0.0095183   -189418.996   3819.100
 FUEL        PMMA                         1.0000000   -442140.000    293.150

 O/F=    1.57704  %FUEL= 38.804147  R,EQ.RATIO= 1.200096  PHI,EQ.RATIO= 1.245655

                 INJECTOR  COMB END  THROAT
 Pinj/P            1.0000   1.0655   1.7828
 P, BAR            43.000   40.358   24.120
 T, K             3821.47  3804.90  3637.46
 RHO, KG/CU M    3.2037 0 3.0215 0 1.9185 0
 H, KJ/KG          683.56   639.84  -27.197
 U, KJ/KG         -658.62  -695.85 -1284.46
 G, KJ/KG        -42447.0 -42344.9 -41120.3
 S, KJ/(KG)(K)    11.2864  11.2972  11.2972

 M, (1/n)          23.673   23.685   24.055
 (dLV/dLP)t      -1.06609 -1.06603 -1.06247
 (dLV/dLT)p        2.0788   2.0827   2.0751
 Cp, KJ/(KG)(K)    8.1568   8.2026   8.3601
 GAMMAs            1.1363   1.1358   1.1307
 SON VEL,M/SEC     1235.0   1231.7   1192.3
 MACH NUMBER        0.000    0.240    1.000

 PERFORMANCE PARAMETERS

 Ae/At                      2.5600   1.0000
 CSTAR, M/SEC               1823.0   1823.0
 CF                         0.1622   0.6540
 Ivac, M/SEC                4812.6   2246.8
 Isp, M/SEC                  295.7   1192.3


 MOLE FRACTIONS

 *CO              0.32105  0.32075  0.31448
 *CO2             0.14081  0.14136  0.15486
 COOH             0.00002  0.00002  0.00001
 *H               0.04441  0.04440  0.04040
 HCO              0.00002  0.00002  0.00001
 HO2              0.00020  0.00019  0.00014
 *H2              0.06378  0.06374  0.06181
 H2O              0.24355  0.24403  0.25793
 H2O2             0.00002  0.00002  0.00001
 *O               0.03615  0.03601  0.03129
 *OH              0.09766  0.09717  0.08916
 *O2              0.05232  0.05229  0.04989

  * THERMODYNAMIC PROPERTIES FITTED TO 20000.K

    PRODUCTS WHICH WERE CONSIDERED BUT WHOSE MOLE FRACTIONS
    WERE LESS THAN 5.000000E-06 FOR ALL ASSIGNED CONDITIONS

 *C              *CH             CH2             CH3             CH2OH          
 CH3O            CH4             CH3OH           CH3OOH          *C2            
 C2H             C2H2,acetylene  C2H2,vinylidene CH2CO,ketene    O(CH)2O        
 HO(CO)2OH       C2H3,vinyl      CH3CO,acetyl    C2H4            C2H4O,ethylen-o
 CH3CHO,ethanal  CH3COOH         OHCH2COOH       C2H5            C2H6           
 C2H5OH          CH3OCH3         CH3O2CH3        C2O             *C3            
 C3H3,1-propynl  C3H3,2-propynl  C3H4,allene     C3H4,propyne    C3H4,cyclo-    
 C3H5,allyl      C3H6,propylene  C3H6,cyclo-     C3H6O,propylox  C3H6O,acetone  
 C3H6O,propanal  C3H7,n-propyl   C3H7,i-propyl   C3H8            C3H8O,1propanol
 C3H8O,2propanol C3O2            *C4             C4H2,butadiyne  C4H4,1,3-cyclo-
 C4H6,butadiene  C4H6,1butyne    C4H6,2butyne    C4H6,cyclo-     C4H8,1-butene  
 C4H8,cis2-buten C4H8,tr2-butene C4H8,isobutene  C4H8,cyclo-     (CH3COOH)2     
 C4H9,n-butyl    C4H9,i-butyl    C4H9,s-butyl    C4H9,t-butyl    C4H10,n-butane 
 C4H10,isobutane *C5             C5H6,1,3cyclo-  C5H8,cyclo-     C5H10,1-pentene
 C5H10,cyclo-    C5H11,pentyl    C5H11,t-pentyl  C5H12,n-pentane C5H12,i-pentane
 CH3C(CH3)2CH3   C6H2            C6H5,phenyl     C6H5O,phenoxy   C6H6           
 C6H5OH,phenol   C6H10,cyclo-    C6H12,1-hexene  C6H12,cyclo-    C6H13,n-hexyl  
 C6H14,n-hexane  C7H7,benzyl     C7H8            C7H8O,cresol-mx C7H14,1-heptene
 C7H15,n-heptyl  C7H16,n-heptane C7H16,2-methylh C8H8,styrene    C8H10,ethylbenz
 C8H16,1-octene  C8H17,n-octyl   C8H18,n-octane  C8H18,isooctane C9H19,n-nonyl  
 C10H8,naphthale C10H21,n-decyl  C12H9,o-bipheny C12H10,biphenyl HCCO           
 HCHO,formaldehy HCOOH           (HCOOH)2        O3              C(gr)          
 H2O(cr)         H2O(L)         

 NOTE. WEIGHT FRACTION OF FUEL IN TOTAL FUELS AND OF OXIDANT IN TOTAL OXIDANTS






 WARNING!!  ASSIGNED pip =   0.00000 IS NOT PERMITTED
 TO BE LESS THAN  Pinj/Pc =  1.06546. POINT OMITTED (ROCKET)





              THEORETICAL ROCKET PERFORMANCE ASSUMING EQUILIBRIUM

            COMPOSITION DURING EXPANSION FROM FINITE AREA COMBUSTOR

 Pin =   623.7 PSIA
 Ac/At =  2.5600      Pinj/Pinf =  1.031219
 CASE =                

             REACTANT                    WT FRACTION      ENERGY      TEMP
                                          (SEE NOTE)     KJ/KG-MOL      K  
 OXIDANT     O2                           0.9762043    131481.365   3819.100
 OXIDANT     H2O                          0.0142774    -66674.151   3819.100
 OXIDANT     CO2                          0.0095183   -189418.996   3819.100
 FUEL        PMMA                         1.0000000   -442140.000    293.150

 O/F=    1.57704  %FUEL= 38.804147  R,EQ.RATIO= 1.200096  PHI,EQ.RATIO= 1.245655

                 INJECTOR  COMB END  THROAT
 Pinj/P            1.0000   1.0655   1.7828
 P, BAR            43.000   40.358   24.120
 T, K             3821.47  3804.90  3637.46
 RHO, KG/CU M    3.2037 0 3.0215 0 1.9185 0
 H, KJ/KG          683.56   639.84  -27.197
 U, KJ/KG         -658.62  -695.85 -1284.46
 G, KJ/KG        -42447.0 -42344.9 -41120.3
 S, KJ/(KG)(K)    11.2864  11.2972  11.2972

 M, (1/n)          23.673   23.685   24.055
 (dLV/dLP)t      -1.06609 -1.06603 -1.06247
 (dLV/dLT)p        2.0788   2.0827   2.0751
 Cp, KJ/(KG)(K)    8.1568   8.2026   8.3601
 GAMMAs            1.1363   1.1358   1.1307
 SON VEL,M/SEC     1235.0   1231.7   1192.3
 MACH NUMBER        0.000    0.240    1.000

 PERFORMANCE PARAMETERS

 Ae/At                      2.5600   1.0000
 CSTAR, M/SEC               1823.0   1823.0
 CF                         0.1622   0.6540
 Ivac, M/SEC                4812.6   2246.8
 Isp, M/SEC                  295.7   1192.3


 MOLE FRACTIONS

 *CO              0.32105  0.32075  0.31448
 *CO2             0.14081  0.14136  0.15486
 COOH             0.00002  0.00002  0.00001
 *H               0.04441  0.04440  0.04040
 HCO              0.00002  0.00002  0.00001
 HO2              0.00020  0.00019  0.00014
 *H2              0.06378  0.06374  0.06181
 H2O              0.24355  0.24403  0.25793
 H2O2             0.00002  0.00002  0.00001
 *O               0.03615  0.03601  0.03129
 *OH              0.09766  0.09717  0.08916
 *O2              0.05232  0.05229  0.04989

  * THERMODYNAMIC PROPERTIES FITTED TO 20000.K

    PRODUCTS WHICH WERE CONSIDERED BUT WHOSE MOLE FRACTIONS
    WERE LESS THAN 5.000000E-06 FOR ALL ASSIGNED CONDITIONS

 *C              *CH             CH2             CH3             CH2OH          
 CH3O            CH4             CH3OH           CH3OOH          *C2            
 C2H             C2H2,acetylene  C2H2,vinylidene CH2CO,ketene    O(CH)2O        
 HO(CO)2OH       C2H3,vinyl      CH3CO,acetyl    C2H4            C2H4O,ethylen-o
 CH3CHO,ethanal  CH3COOH         OHCH2COOH       C2H5            C2H6           
 C2H5OH          CH3OCH3         CH3O2CH3        C2O             *C3            
 C3H3,1-propynl  C3H3,2-propynl  C3H4,allene     C3H4,propyne    C3H4,cyclo-    
 C3H5,allyl      C3H6,propylene  C3H6,cyclo-     C3H6O,propylox  C3H6O,acetone  
 C3H6O,propanal  C3H7,n-propyl   C3H7,i-propyl   C3H8            C3H8O,1propanol
 C3H8O,2propanol C3O2            *C4             C4H2,butadiyne  C4H4,1,3-cyclo-
 C4H6,butadiene  C4H6,1butyne    C4H6,2butyne    C4H6,cyclo-     C4H8,1-butene  
 C4H8,cis2-buten C4H8,tr2-butene C4H8,isobutene  C4H8,cyclo-     (CH3COOH)2     
 C4H9,n-butyl    C4H9,i-butyl    C4H9,s-butyl    C4H9,t-butyl    C4H10,n-butane 
 C4H10,isobutane *C5             C5H6,1,3cyclo-  C5H8,cyclo-     C5H10,1-pentene
 C5H10,cyclo-    C5H11,pentyl    C5H11,t-pentyl  C5H12,n-pentane C5H12,i-pentane
 CH3C(CH3)2CH3   C6H2            C6H5,phenyl     C6H5O,phenoxy   C6H6           
 C6H5OH,phenol   C6H10,cyclo-    C6H12,1-hexene  C6H12,cyclo-    C6H13,n-hexyl  
 C6H14,n-hexane  C7H7,benzyl     C7H8            C7H8O,cresol-mx C7H14,1-heptene
 C7H15,n-heptyl  C7H16,n-heptane C7H16,2-methylh C8H8,styrene    C8H10,ethylbenz
 C8H16,1-octene  C8H17,n-octyl   C8H18,n-octane  C8H18,isooctane C9H19,n-nonyl  
 C10H8,naphthale C10H21,n-decyl  C12H9,o-bipheny C12H10,biphenyl HCCO           
 HCHO,formaldehy HCOOH           (HCOOH)2        O3              C(gr)          
 H2O(cr)         H2O(L)         

 NOTE. WEIGHT FRACTION OF FUEL IN TOTAL FUELS AND OF OXIDANT IN TOTAL OXIDANTS






 WARNING!!  ASSIGNED pip =   0.00000 IS NOT PERMITTED
 TO BE LESS THAN  Pinj/Pc =  1.06546. POINT OMITTED (ROCKET)





              THEORETICAL ROCKET PERFORMANCE ASSUMING EQUILIBRIUM

            COMPOSITION DURING EXPANSION FROM FINITE AREA COMBUSTOR

 Pin =   623.7 PSIA
 Ac/At =  2.5600      Pinj/Pinf =  1.031219
 CASE =                

             REACTANT                    WT FRACTION      ENERGY      TEMP
                                          (SEE NOTE)     KJ/KG-MOL      K  
 OXIDANT     O2                           0.9762043    131481.365   3819.100
 OXIDANT     H2O                          0.0142774    -66674.151   3819.100
 OXIDANT     CO2                          0.0095183   -189418.996   3819.100
 FUEL        PMMA                         1.0000000   -442140.000    293.150

 O/F=    1.57704  %FUEL= 38.804147  R,EQ.RATIO= 1.200096  PHI,EQ.RATIO= 1.245655

                 INJECTOR  COMB END  THROAT
 Pinj/P            1.0000   1.0655   1.7828
 P, BAR            43.000   40.358   24.120
 T, K             3821.47  3804.90  3637.46
 RHO, KG/CU M    3.2037 0 3.0215 0 1.9185 0
 H, KJ/KG          683.56   639.84  -27.197
 U, KJ/KG         -658.62  -695.85 -1284.46
 G, KJ/KG        -42447.0 -42344.9 -41120.3
 S, KJ/(KG)(K)    11.2864  11.2972  11.2972

 M, (1/n)          23.673   23.685   24.055
 (dLV/dLP)t      -1.06609 -1.06603 -1.06247
 (dLV/dLT)p        2.0788   2.0827   2.0751
 Cp, KJ/(KG)(K)    8.1568   8.2026   8.3601
 GAMMAs            1.1363   1.1358   1.1307
 SON VEL,M/SEC     1235.0   1231.7   1192.3
 MACH NUMBER        0.000    0.240    1.000

 PERFORMANCE PARAMETERS

 Ae/At                      2.5600   1.0000
 CSTAR, M/SEC               1823.0   1823.0
 CF                         0.1622   0.6540
 Ivac, M/SEC                4812.6   2246.8
 Isp, M/SEC                  295.7   1192.3


 MOLE FRACTIONS

 *CO              0.32105  0.32075  0.31448
 *CO2             0.14081  0.14136  0.15486
 COOH             0.00002  0.00002  0.00001
 *H               0.04441  0.04440  0.04040
 HCO              0.00002  0.00002  0.00001
 HO2              0.00020  0.00019  0.00014
 *H2              0.06378  0.06374  0.06181
 H2O              0.24355  0.24403  0.25793
 H2O2             0.00002  0.00002  0.00001
 *O               0.03615  0.03601  0.03129
 *OH              0.09766  0.09717  0.08916
 *O2              0.05232  0.05229  0.04989

  * THERMODYNAMIC PROPERTIES FITTED TO 20000.K

    PRODUCTS WHICH WERE CONSIDERED BUT WHOSE MOLE FRACTIONS
    WERE LESS THAN 5.000000E-06 FOR ALL ASSIGNED CONDITIONS

 *C              *CH             CH2             CH3             CH2OH          
 CH3O            CH4             CH3OH           CH3OOH          *C2            
 C2H             C2H2,acetylene  C2H2,vinylidene CH2CO,ketene    O(CH)2O        
 HO(CO)2OH       C2H3,vinyl      CH3CO,acetyl    C2H4            C2H4O,ethylen-o
 CH3CHO,ethanal  CH3COOH         OHCH2COOH       C2H5            C2H6           
 C2H5OH          CH3OCH3         CH3O2CH3        C2O             *C3            
 C3H3,1-propynl  C3H3,2-propynl  C3H4,allene     C3H4,propyne    C3H4,cyclo-    
 C3H5,allyl      C3H6,propylene  C3H6,cyclo-     C3H6O,propylox  C3H6O,acetone  
 C3H6O,propanal  C3H7,n-propyl   C3H7,i-propyl   C3H8            C3H8O,1propanol
 C3H8O,2propanol C3O2            *C4             C4H2,butadiyne  C4H4,1,3-cyclo-
 C4H6,butadiene  C4H6,1butyne    C4H6,2butyne    C4H6,cyclo-     C4H8,1-butene  
 C4H8,cis2-buten C4H8,tr2-butene C4H8,isobutene  C4H8,cyclo-     (CH3COOH)2     
 C4H9,n-butyl    C4H9,i-butyl    C4H9,s-butyl    C4H9,t-butyl    C4H10,n-butane 
 C4H10,isobutane *C5             C5H6,1,3cyclo-  C5H8,cyclo-     C5H10,1-pentene
 C5H10,cyclo-    C5H11,pentyl    C5H11,t-pentyl  C5H12,n-pentane C5H12,i-pentane
 CH3C(CH3)2CH3   C6H2            C6H5,phenyl     C6H5O,phenoxy   C6H6           
 C6H5OH,phenol   C6H10,cyclo-    C6H12,1-hexene  C6H12,cyclo-    C6H13,n-hexyl  
 C6H14,n-hexane  C7H7,benzyl     C7H8            C7H8O,cresol-mx C7H14,1-heptene
 C7H15,n-heptyl  C7H16,n-heptane C7H16,2-methylh C8H8,styrene    C8H10,ethylbenz
 C8H16,1-octene  C8H17,n-octyl   C8H18,n-octane  C8H18,isooctane C9H19,n-nonyl  
 C10H8,naphthale C10H21,n-decyl  C12H9,o-bipheny C12H10,biphenyl HCCO           
 HCHO,formaldehy HCOOH           (HCOOH)2        O3              C(gr)          
 H2O(cr)         H2O(L)         

 NOTE. WEIGHT FRACTION OF FUEL IN TOTAL FUELS AND OF OXIDANT IN TOTAL OXIDANTS






 WARNING!!  ASSIGNED pip =   0.00000 IS NOT PERMITTED
 TO BE LESS THAN  Pinj/Pc =  1.06546. POINT OMITTED (ROCKET)





              THEORETICAL ROCKET PERFORMANCE ASSUMING EQUILIBRIUM

            COMPOSITION DURING EXPANSION FROM FINITE AREA COMBUSTOR

 Pin =   623.7 PSIA
 Ac/At =  2.5600      Pinj/Pinf =  1.031219
 CASE =                

             REACTANT                    WT FRACTION      ENERGY      TEMP
                                          (SEE NOTE)     KJ/KG-MOL      K  
 OXIDANT     O2                           0.9762043    131481.365   3819.100
 OXIDANT     H2O                          0.0142774    -66674.151   3819.100
 OXIDANT     CO2                          0.0095183   -189418.996   3819.100
 FUEL        PMMA                         1.0000000   -442140.000    293.150

 O/F=    1.57704  %FUEL= 38.804147  R,EQ.RATIO= 1.200096  PHI,EQ.RATIO= 1.245655

                 INJECTOR  COMB END  THROAT
 Pinj/P            1.0000   1.0655   1.7828
 P, BAR            43.000   40.358   24.120
 T, K             3821.47  3804.90  3637.46
 RHO, KG/CU M    3.2037 0 3.0215 0 1.9185 0
 H, KJ/KG          683.56   639.84  -27.197
 U, KJ/KG         -658.62  -695.85 -1284.46
 G, KJ/KG        -42447.0 -42344.9 -41120.3
 S, KJ/(KG)(K)    11.2864  11.2972  11.2972

 M, (1/n)          23.673   23.685   24.055
 (dLV/dLP)t      -1.06609 -1.06603 -1.06247
 (dLV/dLT)p        2.0788   2.0827   2.0751
 Cp, KJ/(KG)(K)    8.1568   8.2026   8.3601
 GAMMAs            1.1363   1.1358   1.1307
 SON VEL,M/SEC     1235.0   1231.7   1192.3
 MACH NUMBER        0.000    0.240    1.000

 PERFORMANCE PARAMETERS

 Ae/At                      2.5600   1.0000
 CSTAR, M/SEC               1823.0   1823.0
 CF                         0.1622   0.6540
 Ivac, M/SEC                4812.6   2246.8
 Isp, M/SEC                  295.7   1192.3


 MOLE FRACTIONS

 *CO              0.32105  0.32075  0.31448
 *CO2             0.14081  0.14136  0.15486
 COOH             0.00002  0.00002  0.00001
 *H               0.04441  0.04440  0.04040
 HCO              0.00002  0.00002  0.00001
 HO2              0.00020  0.00019  0.00014
 *H2              0.06378  0.06374  0.06181
 H2O              0.24355  0.24403  0.25793
 H2O2             0.00002  0.00002  0.00001
 *O               0.03615  0.03601  0.03129
 *OH              0.09766  0.09717  0.08916
 *O2              0.05232  0.05229  0.04989

  * THERMODYNAMIC PROPERTIES FITTED TO 20000.K

    PRODUCTS WHICH WERE CONSIDERED BUT WHOSE MOLE FRACTIONS
    WERE LESS THAN 5.000000E-06 FOR ALL ASSIGNED CONDITIONS

 *C              *CH             CH2             CH3             CH2OH          
 CH3O            CH4             CH3OH           CH3OOH          *C2            
 C2H             C2H2,acetylene  C2H2,vinylidene CH2CO,ketene    O(CH)2O        
 HO(CO)2OH       C2H3,vinyl      CH3CO,acetyl    C2H4            C2H4O,ethylen-o
 CH3CHO,ethanal  CH3COOH         OHCH2COOH       C2H5            C2H6           
 C2H5OH          CH3OCH3         CH3O2CH3        C2O             *C3            
 C3H3,1-propynl  C3H3,2-propynl  C3H4,allene     C3H4,propyne    C3H4,cyclo-    
 C3H5,allyl      C3H6,propylene  C3H6,cyclo-     C3H6O,propylox  C3H6O,acetone  
 C3H6O,propanal  C3H7,n-propyl   C3H7,i-propyl   C3H8            C3H8O,1propanol
 C3H8O,2propanol C3O2            *C4             C4H2,butadiyne  C4H4,1,3-cyclo-
 C4H6,butadiene  C4H6,1butyne    C4H6,2butyne    C4H6,cyclo-     C4H8,1-butene  
 C4H8,cis2-buten C4H8,tr2-butene C4H8,isobutene  C4H8,cyclo-     (CH3COOH)2     
 C4H9,n-butyl    C4H9,i-butyl    C4H9,s-butyl    C4H9,t-butyl    C4H10,n-butane 
 C4H10,isobutane *C5             C5H6,1,3cyclo-  C5H8,cyclo-     C5H10,1-pentene
 C5H10,cyclo-    C5H11,pentyl    C5H11,t-pentyl  C5H12,n-pentane C5H12,i-pentane
 CH3C(CH3)2CH3   C6H2            C6H5,phenyl     C6H5O,phenoxy   C6H6           
 C6H5OH,phenol   C6H10,cyclo-    C6H12,1-hexene  C6H12,cyclo-    C6H13,n-hexyl  
 C6H14,n-hexane  C7H7,benzyl     C7H8            C7H8O,cresol-mx C7H14,1-heptene
 C7H15,n-heptyl  C7H16,n-heptane C7H16,2-methylh C8H8,styrene    C8H10,ethylbenz
 C8H16,1-octene  C8H17,n-octyl   C8H18,n-octane  C8H18,isooctane C9H19,n-nonyl  
 C10H8,naphthale C10H21,n-decyl  C12H9,o-bipheny C12H10,biphenyl HCCO           
 HCHO,formaldehy HCOOH           (HCOOH)2        O3              C(gr)          
 H2O(cr)         H2O(L)         

 NOTE. WEIGHT FRACTION OF FUEL IN TOTAL FUELS AND OF OXIDANT IN TOTAL OXIDANTS






 WARNING!!  ASSIGNED pip =   0.00000 IS NOT PERMITTED
 TO BE LESS THAN  Pinj/Pc =  1.06546. POINT OMITTED (ROCKET)





              THEORETICAL ROCKET PERFORMANCE ASSUMING EQUILIBRIUM

            COMPOSITION DURING EXPANSION FROM FINITE AREA COMBUSTOR

 Pin =   623.7 PSIA
 Ac/At =  2.5600      Pinj/Pinf =  1.031219
 CASE =                

             REACTANT                    WT FRACTION      ENERGY      TEMP
                                          (SEE NOTE)     KJ/KG-MOL      K  
 OXIDANT     O2                           0.9762043    131481.365   3819.100
 OXIDANT     H2O                          0.0142774    -66674.151   3819.100
 OXIDANT     CO2                          0.0095183   -189418.996   3819.100
 FUEL        PMMA                         1.0000000   -442140.000    293.150

 O/F=    1.57704  %FUEL= 38.804147  R,EQ.RATIO= 1.200096  PHI,EQ.RATIO= 1.245655

                 INJECTOR  COMB END  THROAT
 Pinj/P            1.0000   1.0655   1.7828
 P, BAR            43.000   40.358   24.120
 T, K             3821.47  3804.90  3637.46
 RHO, KG/CU M    3.2037 0 3.0215 0 1.9185 0
 H, KJ/KG          683.56   639.84  -27.197
 U, KJ/KG         -658.62  -695.85 -1284.46
 G, KJ/KG        -42447.0 -42344.9 -41120.3
 S, KJ/(KG)(K)    11.2864  11.2972  11.2972

 M, (1/n)          23.673   23.685   24.055
 (dLV/dLP)t      -1.06609 -1.06603 -1.06247
 (dLV/dLT)p        2.0788   2.0827   2.0751
 Cp, KJ/(KG)(K)    8.1568   8.2026   8.3601
 GAMMAs            1.1363   1.1358   1.1307
 SON VEL,M/SEC     1235.0   1231.7   1192.3
 MACH NUMBER        0.000    0.240    1.000

 PERFORMANCE PARAMETERS

 Ae/At                      2.5600   1.0000
 CSTAR, M/SEC               1823.0   1823.0
 CF                         0.1622   0.6540
 Ivac, M/SEC                4812.6   2246.8
 Isp, M/SEC                  295.7   1192.3


 MOLE FRACTIONS

 *CO              0.32105  0.32075  0.31448
 *CO2             0.14081  0.14136  0.15486
 COOH             0.00002  0.00002  0.00001
 *H               0.04441  0.04440  0.04040
 HCO              0.00002  0.00002  0.00001
 HO2              0.00020  0.00019  0.00014
 *H2              0.06378  0.06374  0.06181
 H2O              0.24355  0.24403  0.25793
 H2O2             0.00002  0.00002  0.00001
 *O               0.03615  0.03601  0.03129
 *OH              0.09766  0.09717  0.08916
 *O2              0.05232  0.05229  0.04989

  * THERMODYNAMIC PROPERTIES FITTED TO 20000.K

    PRODUCTS WHICH WERE CONSIDERED BUT WHOSE MOLE FRACTIONS
    WERE LESS THAN 5.000000E-06 FOR ALL ASSIGNED CONDITIONS

 *C              *CH             CH2             CH3             CH2OH          
 CH3O            CH4             CH3OH           CH3OOH          *C2            
 C2H             C2H2,acetylene  C2H2,vinylidene CH2CO,ketene    O(CH)2O        
 HO(CO)2OH       C2H3,vinyl      CH3CO,acetyl    C2H4            C2H4O,ethylen-o
 CH3CHO,ethanal  CH3COOH         OHCH2COOH       C2H5            C2H6           
 C2H5OH          CH3OCH3         CH3O2CH3        C2O             *C3            
 C3H3,1-propynl  C3H3,2-propynl  C3H4,allene     C3H4,propyne    C3H4,cyclo-    
 C3H5,allyl      C3H6,propylene  C3H6,cyclo-     C3H6O,propylox  C3H6O,acetone  
 C3H6O,propanal  C3H7,n-propyl   C3H7,i-propyl   C3H8            C3H8O,1propanol
 C3H8O,2propanol C3O2            *C4             C4H2,butadiyne  C4H4,1,3-cyclo-
 C4H6,butadiene  C4H6,1butyne    C4H6,2butyne    C4H6,cyclo-     C4H8,1-butene  
 C4H8,cis2-buten C4H8,tr2-butene C4H8,isobutene  C4H8,cyclo-     (CH3COOH)2     
 C4H9,n-butyl    C4H9,i-butyl    C4H9,s-butyl    C4H9,t-butyl    C4H10,n-butane 
 C4H10,isobutane *C5             C5H6,1,3cyclo-  C5H8,cyclo-     C5H10,1-pentene
 C5H10,cyclo-    C5H11,pentyl    C5H11,t-pentyl  C5H12,n-pentane C5H12,i-pentane
 CH3C(CH3)2CH3   C6H2            C6H5,phenyl     C6H5O,phenoxy   C6H6           
 C6H5OH,phenol   C6H10,cyclo-    C6H12,1-hexene  C6H12,cyclo-    C6H13,n-hexyl  
 C6H14,n-hexane  C7H7,benzyl     C7H8            C7H8O,cresol-mx C7H14,1-heptene
 C7H15,n-heptyl  C7H16,n-heptane C7H16,2-methylh C8H8,styrene    C8H10,ethylbenz
 C8H16,1-octene  C8H17,n-octyl   C8H18,n-octane  C8H18,isooctane C9H19,n-nonyl  
 C10H8,naphthale C10H21,n-decyl  C12H9,o-bipheny C12H10,biphenyl HCCO           
 HCHO,formaldehy HCOOH           (HCOOH)2        O3              C(gr)          
 H2O(cr)         H2O(L)         

 NOTE. WEIGHT FRACTION OF FUEL IN TOTAL FUELS AND OF OXIDANT IN TOTAL OXIDANTS






 WARNING!!  ASSIGNED pip =   0.00000 IS NOT PERMITTED
 TO BE LESS THAN  Pinj/Pc =  1.06546. POINT OMITTED (ROCKET)





              THEORETICAL ROCKET PERFORMANCE ASSUMING EQUILIBRIUM

            COMPOSITION DURING EXPANSION FROM FINITE AREA COMBUSTOR

 Pin =   623.7 PSIA
 Ac/At =  2.5600      Pinj/Pinf =  1.031219
 CASE =                

             REACTANT                    WT FRACTION      ENERGY      TEMP
                                          (SEE NOTE)     KJ/KG-MOL      K  
 OXIDANT     O2                           0.9762043    131481.365   3819.100
 OXIDANT     H2O                          0.0142774    -66674.151   3819.100
 OXIDANT     CO2                          0.0095183   -189418.996   3819.100
 FUEL        PMMA                         1.0000000   -442140.000    293.150

 O/F=    1.57704  %FUEL= 38.804147  R,EQ.RATIO= 1.200096  PHI,EQ.RATIO= 1.245655

                 INJECTOR  COMB END  THROAT
 Pinj/P            1.0000   1.0655   1.7828
 P, BAR            43.000   40.358   24.120
 T, K             3821.47  3804.90  3637.46
 RHO, KG/CU M    3.2037 0 3.0215 0 1.9185 0
 H, KJ/KG          683.56   639.84  -27.197
 U, KJ/KG         -658.62  -695.85 -1284.46
 G, KJ/KG        -42447.0 -42344.9 -41120.3
 S, KJ/(KG)(K)    11.2864  11.2972  11.2972

 M, (1/n)          23.673   23.685   24.055
 (dLV/dLP)t      -1.06609 -1.06603 -1.06247
 (dLV/dLT)p        2.0788   2.0827   2.0751
 Cp, KJ/(KG)(K)    8.1568   8.2026   8.3601
 GAMMAs            1.1363   1.1358   1.1307
 SON VEL,M/SEC     1235.0   1231.7   1192.3
 MACH NUMBER        0.000    0.240    1.000

 PERFORMANCE PARAMETERS

 Ae/At                      2.5600   1.0000
 CSTAR, M/SEC               1823.0   1823.0
 CF                         0.1622   0.6540
 Ivac, M/SEC                4812.6   2246.8
 Isp, M/SEC                  295.7   1192.3


 MOLE FRACTIONS

 *CO              0.32105  0.32075  0.31448
 *CO2             0.14081  0.14136  0.15486
 COOH             0.00002  0.00002  0.00001
 *H               0.04441  0.04440  0.04040
 HCO              0.00002  0.00002  0.00001
 HO2              0.00020  0.00019  0.00014
 *H2              0.06378  0.06374  0.06181
 H2O              0.24355  0.24403  0.25793
 H2O2             0.00002  0.00002  0.00001
 *O               0.03615  0.03601  0.03129
 *OH              0.09766  0.09717  0.08916
 *O2              0.05232  0.05229  0.04989

  * THERMODYNAMIC PROPERTIES FITTED TO 20000.K

    PRODUCTS WHICH WERE CONSIDERED BUT WHOSE MOLE FRACTIONS
    WERE LESS THAN 5.000000E-06 FOR ALL ASSIGNED CONDITIONS

 *C              *CH             CH2             CH3             CH2OH          
 CH3O            CH4             CH3OH           CH3OOH          *C2            
 C2H             C2H2,acetylene  C2H2,vinylidene CH2CO,ketene    O(CH)2O        
 HO(CO)2OH       C2H3,vinyl      CH3CO,acetyl    C2H4            C2H4O,ethylen-o
 CH3CHO,ethanal  CH3COOH         OHCH2COOH       C2H5            C2H6           
 C2H5OH          CH3OCH3         CH3O2CH3        C2O             *C3            
 C3H3,1-propynl  C3H3,2-propynl  C3H4,allene     C3H4,propyne    C3H4,cyclo-    
 C3H5,allyl      C3H6,propylene  C3H6,cyclo-     C3H6O,propylox  C3H6O,acetone  
 C3H6O,propanal  C3H7,n-propyl   C3H7,i-propyl   C3H8            C3H8O,1propanol
 C3H8O,2propanol C3O2            *C4             C4H2,butadiyne  C4H4,1,3-cyclo-
 C4H6,butadiene  C4H6,1butyne    C4H6,2butyne    C4H6,cyclo-     C4H8,1-butene  
 C4H8,cis2-buten C4H8,tr2-butene C4H8,isobutene  C4H8,cyclo-     (CH3COOH)2     
 C4H9,n-butyl    C4H9,i-butyl    C4H9,s-butyl    C4H9,t-butyl    C4H10,n-butane 
 C4H10,isobutane *C5             C5H6,1,3cyclo-  C5H8,cyclo-     C5H10,1-pentene
 C5H10,cyclo-    C5H11,pentyl    C5H11,t-pentyl  C5H12,n-pentane C5H12,i-pentane
 CH3C(CH3)2CH3   C6H2            C6H5,phenyl     C6H5O,phenoxy   C6H6           
 C6H5OH,phenol   C6H10,cyclo-    C6H12,1-hexene  C6H12,cyclo-    C6H13,n-hexyl  
 C6H14,n-hexane  C7H7,benzyl     C7H8            C7H8O,cresol-mx C7H14,1-heptene
 C7H15,n-heptyl  C7H16,n-heptane C7H16,2-methylh C8H8,styrene    C8H10,ethylbenz
 C8H16,1-octene  C8H17,n-octyl   C8H18,n-octane  C8H18,isooctane C9H19,n-nonyl  
 C10H8,naphthale C10H21,n-decyl  C12H9,o-bipheny C12H10,biphenyl HCCO           
 HCHO,formaldehy HCOOH           (HCOOH)2        O3              C(gr)          
 H2O(cr)         H2O(L)         

 NOTE. WEIGHT FRACTION OF FUEL IN TOTAL FUELS AND OF OXIDANT IN TOTAL OXIDANTS






 WARNING!!  ASSIGNED pip =   0.00000 IS NOT PERMITTED
 TO BE LESS THAN  Pinj/Pc =  1.06546. POINT OMITTED (ROCKET)





              THEORETICAL ROCKET PERFORMANCE ASSUMING EQUILIBRIUM

            COMPOSITION DURING EXPANSION FROM FINITE AREA COMBUSTOR

 Pin =   623.7 PSIA
 Ac/At =  2.5600      Pinj/Pinf =  1.031219
 CASE =                

             REACTANT                    WT FRACTION      ENERGY      TEMP
                                          (SEE NOTE)     KJ/KG-MOL      K  
 OXIDANT     O2                           0.9762043    131481.365   3819.100
 OXIDANT     H2O                          0.0142774    -66674.151   3819.100
 OXIDANT     CO2                          0.0095183   -189418.996   3819.100
 FUEL        PMMA                         1.0000000   -442140.000    293.150

 O/F=    1.57704  %FUEL= 38.804147  R,EQ.RATIO= 1.200096  PHI,EQ.RATIO= 1.245655

                 INJECTOR  COMB END  THROAT
 Pinj/P            1.0000   1.0655   1.7828
 P, BAR            43.000   40.358   24.120
 T, K             3821.47  3804.90  3637.46
 RHO, KG/CU M    3.2037 0 3.0215 0 1.9185 0
 H, KJ/KG          683.56   639.84  -27.197
 U, KJ/KG         -658.62  -695.85 -1284.46
 G, KJ/KG        -42447.0 -42344.9 -41120.3
 S, KJ/(KG)(K)    11.2864  11.2972  11.2972

 M, (1/n)          23.673   23.685   24.055
 (dLV/dLP)t      -1.06609 -1.06603 -1.06247
 (dLV/dLT)p        2.0788   2.0827   2.0751
 Cp, KJ/(KG)(K)    8.1568   8.2026   8.3601
 GAMMAs            1.1363   1.1358   1.1307
 SON VEL,M/SEC     1235.0   1231.7   1192.3
 MACH NUMBER        0.000    0.240    1.000

 PERFORMANCE PARAMETERS

 Ae/At                      2.5600   1.0000
 CSTAR, M/SEC               1823.0   1823.0
 CF                         0.1622   0.6540
 Ivac, M/SEC                4812.6   2246.8
 Isp, M/SEC                  295.7   1192.3


 MOLE FRACTIONS

 *CO              0.32105  0.32075  0.31448
 *CO2             0.14081  0.14136  0.15486
 COOH             0.00002  0.00002  0.00001
 *H               0.04441  0.04440  0.04040
 HCO              0.00002  0.00002  0.00001
 HO2              0.00020  0.00019  0.00014
 *H2              0.06378  0.06374  0.06181
 H2O              0.24355  0.24403  0.25793
 H2O2             0.00002  0.00002  0.00001
 *O               0.03615  0.03601  0.03129
 *OH              0.09766  0.09717  0.08916
 *O2              0.05232  0.05229  0.04989

  * THERMODYNAMIC PROPERTIES FITTED TO 20000.K

    PRODUCTS WHICH WERE CONSIDERED BUT WHOSE MOLE FRACTIONS
    WERE LESS THAN 5.000000E-06 FOR ALL ASSIGNED CONDITIONS

 *C              *CH             CH2             CH3             CH2OH          
 CH3O            CH4             CH3OH           CH3OOH          *C2            
 C2H             C2H2,acetylene  C2H2,vinylidene CH2CO,ketene    O(CH)2O        
 HO(CO)2OH       C2H3,vinyl      CH3CO,acetyl    C2H4            C2H4O,ethylen-o
 CH3CHO,ethanal  CH3COOH         OHCH2COOH       C2H5            C2H6           
 C2H5OH          CH3OCH3         CH3O2CH3        C2O             *C3            
 C3H3,1-propynl  C3H3,2-propynl  C3H4,allene     C3H4,propyne    C3H4,cyclo-    
 C3H5,allyl      C3H6,propylene  C3H6,cyclo-     C3H6O,propylox  C3H6O,acetone  
 C3H6O,propanal  C3H7,n-propyl   C3H7,i-propyl   C3H8            C3H8O,1propanol
 C3H8O,2propanol C3O2            *C4             C4H2,butadiyne  C4H4,1,3-cyclo-
 C4H6,butadiene  C4H6,1butyne    C4H6,2butyne    C4H6,cyclo-     C4H8,1-butene  
 C4H8,cis2-buten C4H8,tr2-butene C4H8,isobutene  C4H8,cyclo-     (CH3COOH)2     
 C4H9,n-butyl    C4H9,i-butyl    C4H9,s-butyl    C4H9,t-butyl    C4H10,n-butane 
 C4H10,isobutane *C5             C5H6,1,3cyclo-  C5H8,cyclo-     C5H10,1-pentene
 C5H10,cyclo-    C5H11,pentyl    C5H11,t-pentyl  C5H12,n-pentane C5H12,i-pentane
 CH3C(CH3)2CH3   C6H2            C6H5,phenyl     C6H5O,phenoxy   C6H6           
 C6H5OH,phenol   C6H10,cyclo-    C6H12,1-hexene  C6H12,cyclo-    C6H13,n-hexyl  
 C6H14,n-hexane  C7H7,benzyl     C7H8            C7H8O,cresol-mx C7H14,1-heptene
 C7H15,n-heptyl  C7H16,n-heptane C7H16,2-methylh C8H8,styrene    C8H10,ethylbenz
 C8H16,1-octene  C8H17,n-octyl   C8H18,n-octane  C8H18,isooctane C9H19,n-nonyl  
 C10H8,naphthale C10H21,n-decyl  C12H9,o-bipheny C12H10,biphenyl HCCO           
 HCHO,formaldehy HCOOH           (HCOOH)2        O3              C(gr)          
 H2O(cr)         H2O(L)         

 NOTE. WEIGHT FRACTION OF FUEL IN TOTAL FUELS AND OF OXIDANT IN TOTAL OXIDANTS






 WARNING!!  ASSIGNED pip =   0.00000 IS NOT PERMITTED
 TO BE LESS THAN  Pinj/Pc =  1.06546. POINT OMITTED (ROCKET)





              THEORETICAL ROCKET PERFORMANCE ASSUMING EQUILIBRIUM

            COMPOSITION DURING EXPANSION FROM FINITE AREA COMBUSTOR

 Pin =   623.7 PSIA
 Ac/At =  2.5600      Pinj/Pinf =  1.031219
 CASE =                

             REACTANT                    WT FRACTION      ENERGY      TEMP
                                          (SEE NOTE)     KJ/KG-MOL      K  
 OXIDANT     O2                           0.9762043    131481.365   3819.100
 OXIDANT     H2O                          0.0142774    -66674.151   3819.100
 OXIDANT     CO2                          0.0095183   -189418.996   3819.100
 FUEL        PMMA                         1.0000000   -442140.000    293.150

 O/F=    1.57704  %FUEL= 38.804147  R,EQ.RATIO= 1.200096  PHI,EQ.RATIO= 1.245655

                 INJECTOR  COMB END  THROAT
 Pinj/P            1.0000   1.0655   1.7828
 P, BAR            43.000   40.358   24.120
 T, K             3821.47  3804.90  3637.46
 RHO, KG/CU M    3.2037 0 3.0215 0 1.9185 0
 H, KJ/KG          683.56   639.84  -27.197
 U, KJ/KG         -658.62  -695.85 -1284.46
 G, KJ/KG        -42447.0 -42344.9 -41120.3
 S, KJ/(KG)(K)    11.2864  11.2972  11.2972

 M, (1/n)          23.673   23.685   24.055
 (dLV/dLP)t      -1.06609 -1.06603 -1.06247
 (dLV/dLT)p        2.0788   2.0827   2.0751
 Cp, KJ/(KG)(K)    8.1568   8.2026   8.3601
 GAMMAs            1.1363   1.1358   1.1307
 SON VEL,M/SEC     1235.0   1231.7   1192.3
 MACH NUMBER        0.000    0.240    1.000

 PERFORMANCE PARAMETERS

 Ae/At                      2.5600   1.0000
 CSTAR, M/SEC               1823.0   1823.0
 CF                         0.1622   0.6540
 Ivac, M/SEC                4812.6   2246.8
 Isp, M/SEC                  295.7   1192.3


 MOLE FRACTIONS

 *CO              0.32105  0.32075  0.31448
 *CO2             0.14081  0.14136  0.15486
 COOH             0.00002  0.00002  0.00001
 *H               0.04441  0.04440  0.04040
 HCO              0.00002  0.00002  0.00001
 HO2              0.00020  0.00019  0.00014
 *H2              0.06378  0.06374  0.06181
 H2O              0.24355  0.24403  0.25793
 H2O2             0.00002  0.00002  0.00001
 *O               0.03615  0.03601  0.03129
 *OH              0.09766  0.09717  0.08916
 *O2              0.05232  0.05229  0.04989

  * THERMODYNAMIC PROPERTIES FITTED TO 20000.K

    PRODUCTS WHICH WERE CONSIDERED BUT WHOSE MOLE FRACTIONS
    WERE LESS THAN 5.000000E-06 FOR ALL ASSIGNED CONDITIONS

 *C              *CH             CH2             CH3             CH2OH          
 CH3O            CH4             CH3OH           CH3OOH          *C2            
 C2H             C2H2,acetylene  C2H2,vinylidene CH2CO,ketene    O(CH)2O        
 HO(CO)2OH       C2H3,vinyl      CH3CO,acetyl    C2H4            C2H4O,ethylen-o
 CH3CHO,ethanal  CH3COOH         OHCH2COOH       C2H5            C2H6           
 C2H5OH          CH3OCH3         CH3O2CH3        C2O             *C3            
 C3H3,1-propynl  C3H3,2-propynl  C3H4,allene     C3H4,propyne    C3H4,cyclo-    
 C3H5,allyl      C3H6,propylene  C3H6,cyclo-     C3H6O,propylox  C3H6O,acetone  
 C3H6O,propanal  C3H7,n-propyl   C3H7,i-propyl   C3H8            C3H8O,1propanol
 C3H8O,2propanol C3O2            *C4             C4H2,butadiyne  C4H4,1,3-cyclo-
 C4H6,butadiene  C4H6,1butyne    C4H6,2butyne    C4H6,cyclo-     C4H8,1-butene  
 C4H8,cis2-buten C4H8,tr2-butene C4H8,isobutene  C4H8,cyclo-     (CH3COOH)2     
 C4H9,n-butyl    C4H9,i-butyl    C4H9,s-butyl    C4H9,t-butyl    C4H10,n-butane 
 C4H10,isobutane *C5             C5H6,1,3cyclo-  C5H8,cyclo-     C5H10,1-pentene
 C5H10,cyclo-    C5H11,pentyl    C5H11,t-pentyl  C5H12,n-pentane C5H12,i-pentane
 CH3C(CH3)2CH3   C6H2            C6H5,phenyl     C6H5O,phenoxy   C6H6           
 C6H5OH,phenol   C6H10,cyclo-    C6H12,1-hexene  C6H12,cyclo-    C6H13,n-hexyl  
 C6H14,n-hexane  C7H7,benzyl     C7H8            C7H8O,cresol-mx C7H14,1-heptene
 C7H15,n-heptyl  C7H16,n-heptane C7H16,2-methylh C8H8,styrene    C8H10,ethylbenz
 C8H16,1-octene  C8H17,n-octyl   C8H18,n-octane  C8H18,isooctane C9H19,n-nonyl  
 C10H8,naphthale C10H21,n-decyl  C12H9,o-bipheny C12H10,biphenyl HCCO           
 HCHO,formaldehy HCOOH           (HCOOH)2        O3              C(gr)          
 H2O(cr)         H2O(L)         

 NOTE. WEIGHT FRACTION OF FUEL IN TOTAL FUELS AND OF OXIDANT IN TOTAL OXIDANTS






 WARNING!!  ASSIGNED pip =   0.00000 IS NOT PERMITTED
 TO BE LESS THAN  Pinj/Pc =  1.06546. POINT OMITTED (ROCKET)





              THEORETICAL ROCKET PERFORMANCE ASSUMING EQUILIBRIUM

            COMPOSITION DURING EXPANSION FROM FINITE AREA COMBUSTOR

 Pin =   623.7 PSIA
 Ac/At =  2.5600      Pinj/Pinf =  1.031219
 CASE =                

             REACTANT                    WT FRACTION      ENERGY      TEMP
                                          (SEE NOTE)     KJ/KG-MOL      K  
 OXIDANT     O2                           0.9762043    131481.365   3819.100
 OXIDANT     H2O                          0.0142774    -66674.151   3819.100
 OXIDANT     CO2                          0.0095183   -189418.996   3819.100
 FUEL        PMMA                         1.0000000   -442140.000    293.150

 O/F=    1.57704  %FUEL= 38.804147  R,EQ.RATIO= 1.200096  PHI,EQ.RATIO= 1.245655

                 INJECTOR  COMB END  THROAT
 Pinj/P            1.0000   1.0655   1.7828
 P, BAR            43.000   40.358   24.120
 T, K             3821.47  3804.90  3637.46
 RHO, KG/CU M    3.2037 0 3.0215 0 1.9185 0
 H, KJ/KG          683.56   639.84  -27.197
 U, KJ/KG         -658.62  -695.85 -1284.46
 G, KJ/KG        -42447.0 -42344.9 -41120.3
 S, KJ/(KG)(K)    11.2864  11.2972  11.2972

 M, (1/n)          23.673   23.685   24.055
 (dLV/dLP)t      -1.06609 -1.06603 -1.06247
 (dLV/dLT)p        2.0788   2.0827   2.0751
 Cp, KJ/(KG)(K)    8.1568   8.2026   8.3601
 GAMMAs            1.1363   1.1358   1.1307
 SON VEL,M/SEC     1235.0   1231.7   1192.3
 MACH NUMBER        0.000    0.240    1.000

 PERFORMANCE PARAMETERS

 Ae/At                      2.5600   1.0000
 CSTAR, M/SEC               1823.0   1823.0
 CF                         0.1622   0.6540
 Ivac, M/SEC                4812.6   2246.8
 Isp, M/SEC                  295.7   1192.3


 MOLE FRACTIONS

 *CO              0.32105  0.32075  0.31448
 *CO2             0.14081  0.14136  0.15486
 COOH             0.00002  0.00002  0.00001
 *H               0.04441  0.04440  0.04040
 HCO              0.00002  0.00002  0.00001
 HO2              0.00020  0.00019  0.00014
 *H2              0.06378  0.06374  0.06181
 H2O              0.24355  0.24403  0.25793
 H2O2             0.00002  0.00002  0.00001
 *O               0.03615  0.03601  0.03129
 *OH              0.09766  0.09717  0.08916
 *O2              0.05232  0.05229  0.04989

  * THERMODYNAMIC PROPERTIES FITTED TO 20000.K

    PRODUCTS WHICH WERE CONSIDERED BUT WHOSE MOLE FRACTIONS
    WERE LESS THAN 5.000000E-06 FOR ALL ASSIGNED CONDITIONS

 *C              *CH             CH2             CH3             CH2OH          
 CH3O            CH4             CH3OH           CH3OOH          *C2            
 C2H             C2H2,acetylene  C2H2,vinylidene CH2CO,ketene    O(CH)2O        
 HO(CO)2OH       C2H3,vinyl      CH3CO,acetyl    C2H4            C2H4O,ethylen-o
 CH3CHO,ethanal  CH3COOH         OHCH2COOH       C2H5            C2H6           
 C2H5OH          CH3OCH3         CH3O2CH3        C2O             *C3            
 C3H3,1-propynl  C3H3,2-propynl  C3H4,allene     C3H4,propyne    C3H4,cyclo-    
 C3H5,allyl      C3H6,propylene  C3H6,cyclo-     C3H6O,propylox  C3H6O,acetone  
 C3H6O,propanal  C3H7,n-propyl   C3H7,i-propyl   C3H8            C3H8O,1propanol
 C3H8O,2propanol C3O2            *C4             C4H2,butadiyne  C4H4,1,3-cyclo-
 C4H6,butadiene  C4H6,1butyne    C4H6,2butyne    C4H6,cyclo-     C4H8,1-butene  
 C4H8,cis2-buten C4H8,tr2-butene C4H8,isobutene  C4H8,cyclo-     (CH3COOH)2     
 C4H9,n-butyl    C4H9,i-butyl    C4H9,s-butyl    C4H9,t-butyl    C4H10,n-butane 
 C4H10,isobutane *C5             C5H6,1,3cyclo-  C5H8,cyclo-     C5H10,1-pentene
 C5H10,cyclo-    C5H11,pentyl    C5H11,t-pentyl  C5H12,n-pentane C5H12,i-pentane
 CH3C(CH3)2CH3   C6H2            C6H5,phenyl     C6H5O,phenoxy   C6H6           
 C6H5OH,phenol   C6H10,cyclo-    C6H12,1-hexene  C6H12,cyclo-    C6H13,n-hexyl  
 C6H14,n-hexane  C7H7,benzyl     C7H8            C7H8O,cresol-mx C7H14,1-heptene
 C7H15,n-heptyl  C7H16,n-heptane C7H16,2-methylh C8H8,styrene    C8H10,ethylbenz
 C8H16,1-octene  C8H17,n-octyl   C8H18,n-octane  C8H18,isooctane C9H19,n-nonyl  
 C10H8,naphthale C10H21,n-decyl  C12H9,o-bipheny C12H10,biphenyl HCCO           
 HCHO,formaldehy HCOOH           (HCOOH)2        O3              C(gr)          
 H2O(cr)         H2O(L)         

 NOTE. WEIGHT FRACTION OF FUEL IN TOTAL FUELS AND OF OXIDANT IN TOTAL OXIDANTS






 WARNING!!  ASSIGNED pip =   0.00000 IS NOT PERMITTED
 TO BE LESS THAN  Pinj/Pc =  1.06546. POINT OMITTED (ROCKET)





              THEORETICAL ROCKET PERFORMANCE ASSUMING EQUILIBRIUM

            COMPOSITION DURING EXPANSION FROM FINITE AREA COMBUSTOR

 Pin =   623.7 PSIA
 Ac/At =  2.5600      Pinj/Pinf =  1.031219
 CASE =                

             REACTANT                    WT FRACTION      ENERGY      TEMP
                                          (SEE NOTE)     KJ/KG-MOL      K  
 OXIDANT     O2                           0.9762043    131481.365   3819.100
 OXIDANT     H2O                          0.0142774    -66674.151   3819.100
 OXIDANT     CO2                          0.0095183   -189418.996   3819.100
 FUEL        PMMA                         1.0000000   -442140.000    293.150

 O/F=    1.57704  %FUEL= 38.804147  R,EQ.RATIO= 1.200096  PHI,EQ.RATIO= 1.245655

                 INJECTOR  COMB END  THROAT
 Pinj/P            1.0000   1.0655   1.7828
 P, BAR            43.000   40.358   24.120
 T, K             3821.47  3804.90  3637.46
 RHO, KG/CU M    3.2037 0 3.0215 0 1.9185 0
 H, KJ/KG          683.56   639.84  -27.197
 U, KJ/KG         -658.62  -695.85 -1284.46
 G, KJ/KG        -42447.0 -42344.9 -41120.3
 S, KJ/(KG)(K)    11.2864  11.2972  11.2972

 M, (1/n)          23.673   23.685   24.055
 (dLV/dLP)t      -1.06609 -1.06603 -1.06247
 (dLV/dLT)p        2.0788   2.0827   2.0751
 Cp, KJ/(KG)(K)    8.1568   8.2026   8.3601
 GAMMAs            1.1363   1.1358   1.1307
 SON VEL,M/SEC     1235.0   1231.7   1192.3
 MACH NUMBER        0.000    0.240    1.000

 PERFORMANCE PARAMETERS

 Ae/At                      2.5600   1.0000
 CSTAR, M/SEC               1823.0   1823.0
 CF                         0.1622   0.6540
 Ivac, M/SEC                4812.6   2246.8
 Isp, M/SEC                  295.7   1192.3


 MOLE FRACTIONS

 *CO              0.32105  0.32075  0.31448
 *CO2             0.14081  0.14136  0.15486
 COOH             0.00002  0.00002  0.00001
 *H               0.04441  0.04440  0.04040
 HCO              0.00002  0.00002  0.00001
 HO2              0.00020  0.00019  0.00014
 *H2              0.06378  0.06374  0.06181
 H2O              0.24355  0.24403  0.25793
 H2O2             0.00002  0.00002  0.00001
 *O               0.03615  0.03601  0.03129
 *OH              0.09766  0.09717  0.08916
 *O2              0.05232  0.05229  0.04989

  * THERMODYNAMIC PROPERTIES FITTED TO 20000.K

    PRODUCTS WHICH WERE CONSIDERED BUT WHOSE MOLE FRACTIONS
    WERE LESS THAN 5.000000E-06 FOR ALL ASSIGNED CONDITIONS

 *C              *CH             CH2             CH3             CH2OH          
 CH3O            CH4             CH3OH           CH3OOH          *C2            
 C2H             C2H2,acetylene  C2H2,vinylidene CH2CO,ketene    O(CH)2O        
 HO(CO)2OH       C2H3,vinyl      CH3CO,acetyl    C2H4            C2H4O,ethylen-o
 CH3CHO,ethanal  CH3COOH         OHCH2COOH       C2H5            C2H6           
 C2H5OH          CH3OCH3         CH3O2CH3        C2O             *C3            
 C3H3,1-propynl  C3H3,2-propynl  C3H4,allene     C3H4,propyne    C3H4,cyclo-    
 C3H5,allyl      C3H6,propylene  C3H6,cyclo-     C3H6O,propylox  C3H6O,acetone  
 C3H6O,propanal  C3H7,n-propyl   C3H7,i-propyl   C3H8            C3H8O,1propanol
 C3H8O,2propanol C3O2            *C4             C4H2,butadiyne  C4H4,1,3-cyclo-
 C4H6,butadiene  C4H6,1butyne    C4H6,2butyne    C4H6,cyclo-     C4H8,1-butene  
 C4H8,cis2-buten C4H8,tr2-butene C4H8,isobutene  C4H8,cyclo-     (CH3COOH)2     
 C4H9,n-butyl    C4H9,i-butyl    C4H9,s-butyl    C4H9,t-butyl    C4H10,n-butane 
 C4H10,isobutane *C5             C5H6,1,3cyclo-  C5H8,cyclo-     C5H10,1-pentene
 C5H10,cyclo-    C5H11,pentyl    C5H11,t-pentyl  C5H12,n-pentane C5H12,i-pentane
 CH3C(CH3)2CH3   C6H2            C6H5,phenyl     C6H5O,phenoxy   C6H6           
 C6H5OH,phenol   C6H10,cyclo-    C6H12,1-hexene  C6H12,cyclo-    C6H13,n-hexyl  
 C6H14,n-hexane  C7H7,benzyl     C7H8            C7H8O,cresol-mx C7H14,1-heptene
 C7H15,n-heptyl  C7H16,n-heptane C7H16,2-methylh C8H8,styrene    C8H10,ethylbenz
 C8H16,1-octene  C8H17,n-octyl   C8H18,n-octane  C8H18,isooctane C9H19,n-nonyl  
 C10H8,naphthale C10H21,n-decyl  C12H9,o-bipheny C12H10,biphenyl HCCO           
 HCHO,formaldehy HCOOH           (HCOOH)2        O3              C(gr)          
 H2O(cr)         H2O(L)         

 NOTE. WEIGHT FRACTION OF FUEL IN TOTAL FUELS AND OF OXIDANT IN TOTAL OXIDANTS






 WARNING!!  ASSIGNED pip =   0.00000 IS NOT PERMITTED
 TO BE LESS THAN  Pinj/Pc =  1.06546. POINT OMITTED (ROCKET)





              THEORETICAL ROCKET PERFORMANCE ASSUMING EQUILIBRIUM

            COMPOSITION DURING EXPANSION FROM FINITE AREA COMBUSTOR

 Pin =   623.7 PSIA
 Ac/At =  2.5600      Pinj/Pinf =  1.031219
 CASE =                

             REACTANT                    WT FRACTION      ENERGY      TEMP
                                          (SEE NOTE)     KJ/KG-MOL      K  
 OXIDANT     O2                           0.9762043    131481.365   3819.100
 OXIDANT     H2O                          0.0142774    -66674.151   3819.100
 OXIDANT     CO2                          0.0095183   -189418.996   3819.100
 FUEL        PMMA                         1.0000000   -442140.000    293.150

 O/F=    1.57704  %FUEL= 38.804147  R,EQ.RATIO= 1.200096  PHI,EQ.RATIO= 1.245655

                 INJECTOR  COMB END  THROAT
 Pinj/P            1.0000   1.0655   1.7828
 P, BAR            43.000   40.358   24.120
 T, K             3821.47  3804.90  3637.46
 RHO, KG/CU M    3.2037 0 3.0215 0 1.9185 0
 H, KJ/KG          683.56   639.84  -27.197
 U, KJ/KG         -658.62  -695.85 -1284.46
 G, KJ/KG        -42447.0 -42344.9 -41120.3
 S, KJ/(KG)(K)    11.2864  11.2972  11.2972

 M, (1/n)          23.673   23.685   24.055
 (dLV/dLP)t      -1.06609 -1.06603 -1.06247
 (dLV/dLT)p        2.0788   2.0827   2.0751
 Cp, KJ/(KG)(K)    8.1568   8.2026   8.3601
 GAMMAs            1.1363   1.1358   1.1307
 SON VEL,M/SEC     1235.0   1231.7   1192.3
 MACH NUMBER        0.000    0.240    1.000

 PERFORMANCE PARAMETERS

 Ae/At                      2.5600   1.0000
 CSTAR, M/SEC               1823.0   1823.0
 CF                         0.1622   0.6540
 Ivac, M/SEC                4812.6   2246.8
 Isp, M/SEC                  295.7   1192.3


 MOLE FRACTIONS

 *CO              0.32105  0.32075  0.31448
 *CO2             0.14081  0.14136  0.15486
 COOH             0.00002  0.00002  0.00001
 *H               0.04441  0.04440  0.04040
 HCO              0.00002  0.00002  0.00001
 HO2              0.00020  0.00019  0.00014
 *H2              0.06378  0.06374  0.06181
 H2O              0.24355  0.24403  0.25793
 H2O2             0.00002  0.00002  0.00001
 *O               0.03615  0.03601  0.03129
 *OH              0.09766  0.09717  0.08916
 *O2              0.05232  0.05229  0.04989

  * THERMODYNAMIC PROPERTIES FITTED TO 20000.K

    PRODUCTS WHICH WERE CONSIDERED BUT WHOSE MOLE FRACTIONS
    WERE LESS THAN 5.000000E-06 FOR ALL ASSIGNED CONDITIONS

 *C              *CH             CH2             CH3             CH2OH          
 CH3O            CH4             CH3OH           CH3OOH          *C2            
 C2H             C2H2,acetylene  C2H2,vinylidene CH2CO,ketene    O(CH)2O        
 HO(CO)2OH       C2H3,vinyl      CH3CO,acetyl    C2H4            C2H4O,ethylen-o
 CH3CHO,ethanal  CH3COOH         OHCH2COOH       C2H5            C2H6           
 C2H5OH          CH3OCH3         CH3O2CH3        C2O             *C3            
 C3H3,1-propynl  C3H3,2-propynl  C3H4,allene     C3H4,propyne    C3H4,cyclo-    
 C3H5,allyl      C3H6,propylene  C3H6,cyclo-     C3H6O,propylox  C3H6O,acetone  
 C3H6O,propanal  C3H7,n-propyl   C3H7,i-propyl   C3H8            C3H8O,1propanol
 C3H8O,2propanol C3O2            *C4             C4H2,butadiyne  C4H4,1,3-cyclo-
 C4H6,butadiene  C4H6,1butyne    C4H6,2butyne    C4H6,cyclo-     C4H8,1-butene  
 C4H8,cis2-buten C4H8,tr2-butene C4H8,isobutene  C4H8,cyclo-     (CH3COOH)2     
 C4H9,n-butyl    C4H9,i-butyl    C4H9,s-butyl    C4H9,t-butyl    C4H10,n-butane 
 C4H10,isobutane *C5             C5H6,1,3cyclo-  C5H8,cyclo-     C5H10,1-pentene
 C5H10,cyclo-    C5H11,pentyl    C5H11,t-pentyl  C5H12,n-pentane C5H12,i-pentane
 CH3C(CH3)2CH3   C6H2            C6H5,phenyl     C6H5O,phenoxy   C6H6           
 C6H5OH,phenol   C6H10,cyclo-    C6H12,1-hexene  C6H12,cyclo-    C6H13,n-hexyl  
 C6H14,n-hexane  C7H7,benzyl     C7H8            C7H8O,cresol-mx C7H14,1-heptene
 C7H15,n-heptyl  C7H16,n-heptane C7H16,2-methylh C8H8,styrene    C8H10,ethylbenz
 C8H16,1-octene  C8H17,n-octyl   C8H18,n-octane  C8H18,isooctane C9H19,n-nonyl  
 C10H8,naphthale C10H21,n-decyl  C12H9,o-bipheny C12H10,biphenyl HCCO           
 HCHO,formaldehy HCOOH           (HCOOH)2        O3              C(gr)          
 H2O(cr)         H2O(L)         

 NOTE. WEIGHT FRACTION OF FUEL IN TOTAL FUELS AND OF OXIDANT IN TOTAL OXIDANTS






 WARNING!!  ASSIGNED pip =   0.00000 IS NOT PERMITTED
 TO BE LESS THAN  Pinj/Pc =  1.06546. POINT OMITTED (ROCKET)





              THEORETICAL ROCKET PERFORMANCE ASSUMING EQUILIBRIUM

            COMPOSITION DURING EXPANSION FROM FINITE AREA COMBUSTOR

 Pin =   623.7 PSIA
 Ac/At =  2.5600      Pinj/Pinf =  1.031219
 CASE =                

             REACTANT                    WT FRACTION      ENERGY      TEMP
                                          (SEE NOTE)     KJ/KG-MOL      K  
 OXIDANT     O2                           0.9762043    131481.365   3819.100
 OXIDANT     H2O                          0.0142774    -66674.151   3819.100
 OXIDANT     CO2                          0.0095183   -189418.996   3819.100
 FUEL        PMMA                         1.0000000   -442140.000    293.150

 O/F=    1.57704  %FUEL= 38.804147  R,EQ.RATIO= 1.200096  PHI,EQ.RATIO= 1.245655

                 INJECTOR  COMB END  THROAT
 Pinj/P            1.0000   1.0655   1.7828
 P, BAR            43.000   40.358   24.120
 T, K             3821.47  3804.90  3637.46
 RHO, KG/CU M    3.2037 0 3.0215 0 1.9185 0
 H, KJ/KG          683.56   639.84  -27.197
 U, KJ/KG         -658.62  -695.85 -1284.46
 G, KJ/KG        -42447.0 -42344.9 -41120.3
 S, KJ/(KG)(K)    11.2864  11.2972  11.2972

 M, (1/n)          23.673   23.685   24.055
 (dLV/dLP)t      -1.06609 -1.06603 -1.06247
 (dLV/dLT)p        2.0788   2.0827   2.0751
 Cp, KJ/(KG)(K)    8.1568   8.2026   8.3601
 GAMMAs            1.1363   1.1358   1.1307
 SON VEL,M/SEC     1235.0   1231.7   1192.3
 MACH NUMBER        0.000    0.240    1.000

 PERFORMANCE PARAMETERS

 Ae/At                      2.5600   1.0000
 CSTAR, M/SEC               1823.0   1823.0
 CF                         0.1622   0.6540
 Ivac, M/SEC                4812.6   2246.8
 Isp, M/SEC                  295.7   1192.3


 MOLE FRACTIONS

 *CO              0.32105  0.32075  0.31448
 *CO2             0.14081  0.14136  0.15486
 COOH             0.00002  0.00002  0.00001
 *H               0.04441  0.04440  0.04040
 HCO              0.00002  0.00002  0.00001
 HO2              0.00020  0.00019  0.00014
 *H2              0.06378  0.06374  0.06181
 H2O              0.24355  0.24403  0.25793
 H2O2             0.00002  0.00002  0.00001
 *O               0.03615  0.03601  0.03129
 *OH              0.09766  0.09717  0.08916
 *O2              0.05232  0.05229  0.04989

  * THERMODYNAMIC PROPERTIES FITTED TO 20000.K

    PRODUCTS WHICH WERE CONSIDERED BUT WHOSE MOLE FRACTIONS
    WERE LESS THAN 5.000000E-06 FOR ALL ASSIGNED CONDITIONS

 *C              *CH             CH2             CH3             CH2OH          
 CH3O            CH4             CH3OH           CH3OOH          *C2            
 C2H             C2H2,acetylene  C2H2,vinylidene CH2CO,ketene    O(CH)2O        
 HO(CO)2OH       C2H3,vinyl      CH3CO,acetyl    C2H4            C2H4O,ethylen-o
 CH3CHO,ethanal  CH3COOH         OHCH2COOH       C2H5            C2H6           
 C2H5OH          CH3OCH3         CH3O2CH3        C2O             *C3            
 C3H3,1-propynl  C3H3,2-propynl  C3H4,allene     C3H4,propyne    C3H4,cyclo-    
 C3H5,allyl      C3H6,propylene  C3H6,cyclo-     C3H6O,propylox  C3H6O,acetone  
 C3H6O,propanal  C3H7,n-propyl   C3H7,i-propyl   C3H8            C3H8O,1propanol
 C3H8O,2propanol C3O2            *C4             C4H2,butadiyne  C4H4,1,3-cyclo-
 C4H6,butadiene  C4H6,1butyne    C4H6,2butyne    C4H6,cyclo-     C4H8,1-butene  
 C4H8,cis2-buten C4H8,tr2-butene C4H8,isobutene  C4H8,cyclo-     (CH3COOH)2     
 C4H9,n-butyl    C4H9,i-butyl    C4H9,s-butyl    C4H9,t-butyl    C4H10,n-butane 
 C4H10,isobutane *C5             C5H6,1,3cyclo-  C5H8,cyclo-     C5H10,1-pentene
 C5H10,cyclo-    C5H11,pentyl    C5H11,t-pentyl  C5H12,n-pentane C5H12,i-pentane
 CH3C(CH3)2CH3   C6H2            C6H5,phenyl     C6H5O,phenoxy   C6H6           
 C6H5OH,phenol   C6H10,cyclo-    C6H12,1-hexene  C6H12,cyclo-    C6H13,n-hexyl  
 C6H14,n-hexane  C7H7,benzyl     C7H8            C7H8O,cresol-mx C7H14,1-heptene
 C7H15,n-heptyl  C7H16,n-heptane C7H16,2-methylh C8H8,styrene    C8H10,ethylbenz
 C8H16,1-octene  C8H17,n-octyl   C8H18,n-octane  C8H18,isooctane C9H19,n-nonyl  
 C10H8,naphthale C10H21,n-decyl  C12H9,o-bipheny C12H10,biphenyl HCCO           
 HCHO,formaldehy HCOOH           (HCOOH)2        O3              C(gr)          
 H2O(cr)         H2O(L)         

 NOTE. WEIGHT FRACTION OF FUEL IN TOTAL FUELS AND OF OXIDANT IN TOTAL OXIDANTS






 WARNING!!  ASSIGNED pip =   0.00000 IS NOT PERMITTED
 TO BE LESS THAN  Pinj/Pc =  1.06546. POINT OMITTED (ROCKET)





              THEORETICAL ROCKET PERFORMANCE ASSUMING EQUILIBRIUM

            COMPOSITION DURING EXPANSION FROM FINITE AREA COMBUSTOR

 Pin =   623.7 PSIA
 Ac/At =  2.5600      Pinj/Pinf =  1.031219
 CASE =                

             REACTANT                    WT FRACTION      ENERGY      TEMP
                                          (SEE NOTE)     KJ/KG-MOL      K  
 OXIDANT     O2                           0.9762043    131481.365   3819.100
 OXIDANT     H2O                          0.0142774    -66674.151   3819.100
 OXIDANT     CO2                          0.0095183   -189418.996   3819.100
 FUEL        PMMA                         1.0000000   -442140.000    293.150

 O/F=    1.57704  %FUEL= 38.804147  R,EQ.RATIO= 1.200096  PHI,EQ.RATIO= 1.245655

                 INJECTOR  COMB END  THROAT
 Pinj/P            1.0000   1.0655   1.7828
 P, BAR            43.000   40.358   24.120
 T, K             3821.47  3804.90  3637.46
 RHO, KG/CU M    3.2037 0 3.0215 0 1.9185 0
 H, KJ/KG          683.56   639.84  -27.197
 U, KJ/KG         -658.62  -695.85 -1284.46
 G, KJ/KG        -42447.0 -42344.9 -41120.3
 S, KJ/(KG)(K)    11.2864  11.2972  11.2972

 M, (1/n)          23.673   23.685   24.055
 (dLV/dLP)t      -1.06609 -1.06603 -1.06247
 (dLV/dLT)p        2.0788   2.0827   2.0751
 Cp, KJ/(KG)(K)    8.1568   8.2026   8.3601
 GAMMAs            1.1363   1.1358   1.1307
 SON VEL,M/SEC     1235.0   1231.7   1192.3
 MACH NUMBER        0.000    0.240    1.000

 PERFORMANCE PARAMETERS

 Ae/At                      2.5600   1.0000
 CSTAR, M/SEC               1823.0   1823.0
 CF                         0.1622   0.6540
 Ivac, M/SEC                4812.6   2246.8
 Isp, M/SEC                  295.7   1192.3


 MOLE FRACTIONS

 *CO              0.32105  0.32075  0.31448
 *CO2             0.14081  0.14136  0.15486
 COOH             0.00002  0.00002  0.00001
 *H               0.04441  0.04440  0.04040
 HCO              0.00002  0.00002  0.00001
 HO2              0.00020  0.00019  0.00014
 *H2              0.06378  0.06374  0.06181
 H2O              0.24355  0.24403  0.25793
 H2O2             0.00002  0.00002  0.00001
 *O               0.03615  0.03601  0.03129
 *OH              0.09766  0.09717  0.08916
 *O2              0.05232  0.05229  0.04989

  * THERMODYNAMIC PROPERTIES FITTED TO 20000.K

    PRODUCTS WHICH WERE CONSIDERED BUT WHOSE MOLE FRACTIONS
    WERE LESS THAN 5.000000E-06 FOR ALL ASSIGNED CONDITIONS

 *C              *CH             CH2             CH3             CH2OH          
 CH3O            CH4             CH3OH           CH3OOH          *C2            
 C2H             C2H2,acetylene  C2H2,vinylidene CH2CO,ketene    O(CH)2O        
 HO(CO)2OH       C2H3,vinyl      CH3CO,acetyl    C2H4            C2H4O,ethylen-o
 CH3CHO,ethanal  CH3COOH         OHCH2COOH       C2H5            C2H6           
 C2H5OH          CH3OCH3         CH3O2CH3        C2O             *C3            
 C3H3,1-propynl  C3H3,2-propynl  C3H4,allene     C3H4,propyne    C3H4,cyclo-    
 C3H5,allyl      C3H6,propylene  C3H6,cyclo-     C3H6O,propylox  C3H6O,acetone  
 C3H6O,propanal  C3H7,n-propyl   C3H7,i-propyl   C3H8            C3H8O,1propanol
 C3H8O,2propanol C3O2            *C4             C4H2,butadiyne  C4H4,1,3-cyclo-
 C4H6,butadiene  C4H6,1butyne    C4H6,2butyne    C4H6,cyclo-     C4H8,1-butene  
 C4H8,cis2-buten C4H8,tr2-butene C4H8,isobutene  C4H8,cyclo-     (CH3COOH)2     
 C4H9,n-butyl    C4H9,i-butyl    C4H9,s-butyl    C4H9,t-butyl    C4H10,n-butane 
 C4H10,isobutane *C5             C5H6,1,3cyclo-  C5H8,cyclo-     C5H10,1-pentene
 C5H10,cyclo-    C5H11,pentyl    C5H11,t-pentyl  C5H12,n-pentane C5H12,i-pentane
 CH3C(CH3)2CH3   C6H2            C6H5,phenyl     C6H5O,phenoxy   C6H6           
 C6H5OH,phenol   C6H10,cyclo-    C6H12,1-hexene  C6H12,cyclo-    C6H13,n-hexyl  
 C6H14,n-hexane  C7H7,benzyl     C7H8            C7H8O,cresol-mx C7H14,1-heptene
 C7H15,n-heptyl  C7H16,n-heptane C7H16,2-methylh C8H8,styrene    C8H10,ethylbenz
 C8H16,1-octene  C8H17,n-octyl   C8H18,n-octane  C8H18,isooctane C9H19,n-nonyl  
 C10H8,naphthale C10H21,n-decyl  C12H9,o-bipheny C12H10,biphenyl HCCO           
 HCHO,formaldehy HCOOH           (HCOOH)2        O3              C(gr)          
 H2O(cr)         H2O(L)         

 NOTE. WEIGHT FRACTION OF FUEL IN TOTAL FUELS AND OF OXIDANT IN TOTAL OXIDANTS






 WARNING!!  ASSIGNED pip =   0.00000 IS NOT PERMITTED
 TO BE LESS THAN  Pinj/Pc =  1.06546. POINT OMITTED (ROCKET)





              THEORETICAL ROCKET PERFORMANCE ASSUMING EQUILIBRIUM

            COMPOSITION DURING EXPANSION FROM FINITE AREA COMBUSTOR

 Pin =   623.7 PSIA
 Ac/At =  2.5600      Pinj/Pinf =  1.031219
 CASE =                

             REACTANT                    WT FRACTION      ENERGY      TEMP
                                          (SEE NOTE)     KJ/KG-MOL      K  
 OXIDANT     O2                           0.9762043    131481.365   3819.100
 OXIDANT     H2O                          0.0142774    -66674.151   3819.100
 OXIDANT     CO2                          0.0095183   -189418.996   3819.100
 FUEL        PMMA                         1.0000000   -442140.000    293.150

 O/F=    1.57704  %FUEL= 38.804147  R,EQ.RATIO= 1.200096  PHI,EQ.RATIO= 1.245655

                 INJECTOR  COMB END  THROAT
 Pinj/P            1.0000   1.0655   1.7828
 P, BAR            43.000   40.358   24.120
 T, K             3821.47  3804.90  3637.46
 RHO, KG/CU M    3.2037 0 3.0215 0 1.9185 0
 H, KJ/KG          683.56   639.84  -27.197
 U, KJ/KG         -658.62  -695.85 -1284.46
 G, KJ/KG        -42447.0 -42344.9 -41120.3
 S, KJ/(KG)(K)    11.2864  11.2972  11.2972

 M, (1/n)          23.673   23.685   24.055
 (dLV/dLP)t      -1.06609 -1.06603 -1.06247
 (dLV/dLT)p        2.0788   2.0827   2.0751
 Cp, KJ/(KG)(K)    8.1568   8.2026   8.3601
 GAMMAs            1.1363   1.1358   1.1307
 SON VEL,M/SEC     1235.0   1231.7   1192.3
 MACH NUMBER        0.000    0.240    1.000

 PERFORMANCE PARAMETERS

 Ae/At                      2.5600   1.0000
 CSTAR, M/SEC               1823.0   1823.0
 CF                         0.1622   0.6540
 Ivac, M/SEC                4812.6   2246.8
 Isp, M/SEC                  295.7   1192.3


 MOLE FRACTIONS

 *CO              0.32105  0.32075  0.31448
 *CO2             0.14081  0.14136  0.15486
 COOH             0.00002  0.00002  0.00001
 *H               0.04441  0.04440  0.04040
 HCO              0.00002  0.00002  0.00001
 HO2              0.00020  0.00019  0.00014
 *H2              0.06378  0.06374  0.06181
 H2O              0.24355  0.24403  0.25793
 H2O2             0.00002  0.00002  0.00001
 *O               0.03615  0.03601  0.03129
 *OH              0.09766  0.09717  0.08916
 *O2              0.05232  0.05229  0.04989

  * THERMODYNAMIC PROPERTIES FITTED TO 20000.K

    PRODUCTS WHICH WERE CONSIDERED BUT WHOSE MOLE FRACTIONS
    WERE LESS THAN 5.000000E-06 FOR ALL ASSIGNED CONDITIONS

 *C              *CH             CH2             CH3             CH2OH          
 CH3O            CH4             CH3OH           CH3OOH          *C2            
 C2H             C2H2,acetylene  C2H2,vinylidene CH2CO,ketene    O(CH)2O        
 HO(CO)2OH       C2H3,vinyl      CH3CO,acetyl    C2H4            C2H4O,ethylen-o
 CH3CHO,ethanal  CH3COOH         OHCH2COOH       C2H5            C2H6           
 C2H5OH          CH3OCH3         CH3O2CH3        C2O             *C3            
 C3H3,1-propynl  C3H3,2-propynl  C3H4,allene     C3H4,propyne    C3H4,cyclo-    
 C3H5,allyl      C3H6,propylene  C3H6,cyclo-     C3H6O,propylox  C3H6O,acetone  
 C3H6O,propanal  C3H7,n-propyl   C3H7,i-propyl   C3H8            C3H8O,1propanol
 C3H8O,2propanol C3O2            *C4             C4H2,butadiyne  C4H4,1,3-cyclo-
 C4H6,butadiene  C4H6,1butyne    C4H6,2butyne    C4H6,cyclo-     C4H8,1-butene  
 C4H8,cis2-buten C4H8,tr2-butene C4H8,isobutene  C4H8,cyclo-     (CH3COOH)2     
 C4H9,n-butyl    C4H9,i-butyl    C4H9,s-butyl    C4H9,t-butyl    C4H10,n-butane 
 C4H10,isobutane *C5             C5H6,1,3cyclo-  C5H8,cyclo-     C5H10,1-pentene
 C5H10,cyclo-    C5H11,pentyl    C5H11,t-pentyl  C5H12,n-pentane C5H12,i-pentane
 CH3C(CH3)2CH3   C6H2            C6H5,phenyl     C6H5O,phenoxy   C6H6           
 C6H5OH,phenol   C6H10,cyclo-    C6H12,1-hexene  C6H12,cyclo-    C6H13,n-hexyl  
 C6H14,n-hexane  C7H7,benzyl     C7H8            C7H8O,cresol-mx C7H14,1-heptene
 C7H15,n-heptyl  C7H16,n-heptane C7H16,2-methylh C8H8,styrene    C8H10,ethylbenz
 C8H16,1-octene  C8H17,n-octyl   C8H18,n-octane  C8H18,isooctane C9H19,n-nonyl  
 C10H8,naphthale C10H21,n-decyl  C12H9,o-bipheny C12H10,biphenyl HCCO           
 HCHO,formaldehy HCOOH           (HCOOH)2        O3              C(gr)          
 H2O(cr)         H2O(L)         

 NOTE. WEIGHT FRACTION OF FUEL IN TOTAL FUELS AND OF OXIDANT IN TOTAL OXIDANTS






 WARNING!!  ASSIGNED pip =   0.00000 IS NOT PERMITTED
 TO BE LESS THAN  Pinj/Pc =  1.06546. POINT OMITTED (ROCKET)





              THEORETICAL ROCKET PERFORMANCE ASSUMING EQUILIBRIUM

            COMPOSITION DURING EXPANSION FROM FINITE AREA COMBUSTOR

 Pin =   623.7 PSIA
 Ac/At =  2.5600      Pinj/Pinf =  1.031219
 CASE =                

             REACTANT                    WT FRACTION      ENERGY      TEMP
                                          (SEE NOTE)     KJ/KG-MOL      K  
 OXIDANT     O2                           0.9762043    131481.365   3819.100
 OXIDANT     H2O                          0.0142774    -66674.151   3819.100
 OXIDANT     CO2                          0.0095183   -189418.996   3819.100
 FUEL        PMMA                         1.0000000   -442140.000    293.150

 O/F=    1.57704  %FUEL= 38.804147  R,EQ.RATIO= 1.200096  PHI,EQ.RATIO= 1.245655

                 INJECTOR  COMB END  THROAT
 Pinj/P            1.0000   1.0655   1.7828
 P, BAR            43.000   40.358   24.120
 T, K             3821.47  3804.90  3637.46
 RHO, KG/CU M    3.2037 0 3.0215 0 1.9185 0
 H, KJ/KG          683.56   639.84  -27.197
 U, KJ/KG         -658.62  -695.85 -1284.46
 G, KJ/KG        -42447.0 -42344.9 -41120.3
 S, KJ/(KG)(K)    11.2864  11.2972  11.2972

 M, (1/n)          23.673   23.685   24.055
 (dLV/dLP)t      -1.06609 -1.06603 -1.06247
 (dLV/dLT)p        2.0788   2.0827   2.0751
 Cp, KJ/(KG)(K)    8.1568   8.2026   8.3601
 GAMMAs            1.1363   1.1358   1.1307
 SON VEL,M/SEC     1235.0   1231.7   1192.3
 MACH NUMBER        0.000    0.240    1.000

 PERFORMANCE PARAMETERS

 Ae/At                      2.5600   1.0000
 CSTAR, M/SEC               1823.0   1823.0
 CF                         0.1622   0.6540
 Ivac, M/SEC                4812.6   2246.8
 Isp, M/SEC                  295.7   1192.3


 MOLE FRACTIONS

 *CO              0.32105  0.32075  0.31448
 *CO2             0.14081  0.14136  0.15486
 COOH             0.00002  0.00002  0.00001
 *H               0.04441  0.04440  0.04040
 HCO              0.00002  0.00002  0.00001
 HO2              0.00020  0.00019  0.00014
 *H2              0.06378  0.06374  0.06181
 H2O              0.24355  0.24403  0.25793
 H2O2             0.00002  0.00002  0.00001
 *O               0.03615  0.03601  0.03129
 *OH              0.09766  0.09717  0.08916
 *O2              0.05232  0.05229  0.04989

  * THERMODYNAMIC PROPERTIES FITTED TO 20000.K

    PRODUCTS WHICH WERE CONSIDERED BUT WHOSE MOLE FRACTIONS
    WERE LESS THAN 5.000000E-06 FOR ALL ASSIGNED CONDITIONS

 *C              *CH             CH2             CH3             CH2OH          
 CH3O            CH4             CH3OH           CH3OOH          *C2            
 C2H             C2H2,acetylene  C2H2,vinylidene CH2CO,ketene    O(CH)2O        
 HO(CO)2OH       C2H3,vinyl      CH3CO,acetyl    C2H4            C2H4O,ethylen-o
 CH3CHO,ethanal  CH3COOH         OHCH2COOH       C2H5            C2H6           
 C2H5OH          CH3OCH3         CH3O2CH3        C2O             *C3            
 C3H3,1-propynl  C3H3,2-propynl  C3H4,allene     C3H4,propyne    C3H4,cyclo-    
 C3H5,allyl      C3H6,propylene  C3H6,cyclo-     C3H6O,propylox  C3H6O,acetone  
 C3H6O,propanal  C3H7,n-propyl   C3H7,i-propyl   C3H8            C3H8O,1propanol
 C3H8O,2propanol C3O2            *C4             C4H2,butadiyne  C4H4,1,3-cyclo-
 C4H6,butadiene  C4H6,1butyne    C4H6,2butyne    C4H6,cyclo-     C4H8,1-butene  
 C4H8,cis2-buten C4H8,tr2-butene C4H8,isobutene  C4H8,cyclo-     (CH3COOH)2     
 C4H9,n-butyl    C4H9,i-butyl    C4H9,s-butyl    C4H9,t-butyl    C4H10,n-butane 
 C4H10,isobutane *C5             C5H6,1,3cyclo-  C5H8,cyclo-     C5H10,1-pentene
 C5H10,cyclo-    C5H11,pentyl    C5H11,t-pentyl  C5H12,n-pentane C5H12,i-pentane
 CH3C(CH3)2CH3   C6H2            C6H5,phenyl     C6H5O,phenoxy   C6H6           
 C6H5OH,phenol   C6H10,cyclo-    C6H12,1-hexene  C6H12,cyclo-    C6H13,n-hexyl  
 C6H14,n-hexane  C7H7,benzyl     C7H8            C7H8O,cresol-mx C7H14,1-heptene
 C7H15,n-heptyl  C7H16,n-heptane C7H16,2-methylh C8H8,styrene    C8H10,ethylbenz
 C8H16,1-octene  C8H17,n-octyl   C8H18,n-octane  C8H18,isooctane C9H19,n-nonyl  
 C10H8,naphthale C10H21,n-decyl  C12H9,o-bipheny C12H10,biphenyl HCCO           
 HCHO,formaldehy HCOOH           (HCOOH)2        O3              C(gr)          
 H2O(cr)         H2O(L)         

 NOTE. WEIGHT FRACTION OF FUEL IN TOTAL FUELS AND OF OXIDANT IN TOTAL OXIDANTS





   4    7    2143.765     -19.557     -13.040     -19.501





              THEORETICAL ROCKET PERFORMANCE ASSUMING EQUILIBRIUM

            COMPOSITION DURING EXPANSION FROM FINITE AREA COMBUSTOR

 Pin =   623.7 PSIA
 Ac/At =  2.5600      Pinj/Pinf =  1.031219
 CASE =                

             REACTANT                    WT FRACTION      ENERGY      TEMP
                                          (SEE NOTE)     KJ/KG-MOL      K  
 OXIDANT     O2                           0.9762043    131481.365   3819.100
 OXIDANT     H2O                          0.0142774    -66674.151   3819.100
 OXIDANT     CO2                          0.0095183   -189418.996   3819.100
 FUEL        PMMA                         1.0000000   -442140.000    293.150

 O/F=    1.57704  %FUEL= 38.804147  R,EQ.RATIO= 1.200096  PHI,EQ.RATIO= 1.245655

                 INJECTOR  COMB END  THROAT     EXIT
 Pinj/P            1.0000   1.0655   1.7828  1234.98
 P, BAR            43.000   40.358   24.120  0.03482
 T, K             3821.47  3804.90  3637.46  2143.76
 RHO, KG/CU M    3.2037 0 3.0215 0 1.9185 0 5.4655-3
 H, KJ/KG          683.56   639.84  -27.197 -5975.48
 U, KJ/KG         -658.62  -695.85 -1284.46 -6612.53
 G, KJ/KG        -42447.0 -42344.9 -41120.3 -30194.0
 S, KJ/(KG)(K)    11.2864  11.2972  11.2972  11.2972

 M, (1/n)          23.673   23.685   24.055   27.979
 (dLV/dLP)t      -1.06609 -1.06603 -1.06247 -1.00407
 (dLV/dLT)p        2.0788   2.0827   2.0751   1.1202
 Cp, KJ/(KG)(K)    8.1568   8.2026   8.3601   2.9064
 GAMMAs            1.1363   1.1358   1.1307   1.1419
 SON VEL,M/SEC     1235.0   1231.7   1192.3    852.9
 MACH NUMBER        0.000    0.240    1.000    4.279

 PERFORMANCE PARAMETERS

 Ae/At                      2.5600   1.0000   114.68
 CSTAR, M/SEC               1823.0   1823.0   1823.0
 CF                         0.1622   0.6540   2.0018
 Ivac, M/SEC                4812.6   2246.8   3824.0
 Isp, M/SEC                  295.7   1192.3   3649.4


 MOLE FRACTIONS

 *CO              0.32105  0.32075  0.31448  0.21101
 *CO2             0.14081  0.14136  0.15486  0.33492
 COOH             0.00002  0.00002  0.00001  0.00000
 *H               0.04441  0.04440  0.04040  0.00482
 HCO              0.00002  0.00002  0.00001  0.00000
 HO2              0.00020  0.00019  0.00014  0.00000
 *H2              0.06378  0.06374  0.06181  0.04871
 H2O              0.24355  0.24403  0.25793  0.39345
 H2O2             0.00002  0.00002  0.00001  0.00000
 *O               0.03615  0.03601  0.03129  0.00035
 *OH              0.09766  0.09717  0.08916  0.00557
 *O2              0.05232  0.05229  0.04989  0.00118

  * THERMODYNAMIC PROPERTIES FITTED TO 20000.K

    PRODUCTS WHICH WERE CONSIDERED BUT WHOSE MOLE FRACTIONS
    WERE LESS THAN 5.000000E-06 FOR ALL ASSIGNED CONDITIONS

 *C              *CH             CH2             CH3             CH2OH          
 CH3O            CH4             CH3OH           CH3OOH          *C2            
 C2H             C2H2,acetylene  C2H2,vinylidene CH2CO,ketene    O(CH)2O        
 HO(CO)2OH       C2H3,vinyl      CH3CO,acetyl    C2H4            C2H4O,ethylen-o
 CH3CHO,ethanal  CH3COOH         OHCH2COOH       C2H5            C2H6           
 C2H5OH          CH3OCH3         CH3O2CH3        C2O             *C3            
 C3H3,1-propynl  C3H3,2-propynl  C3H4,allene     C3H4,propyne    C3H4,cyclo-    
 C3H5,allyl      C3H6,propylene  C3H6,cyclo-     C3H6O,propylox  C3H6O,acetone  
 C3H6O,propanal  C3H7,n-propyl   C3H7,i-propyl   C3H8            C3H8O,1propanol
 C3H8O,2propanol C3O2            *C4             C4H2,butadiyne  C4H4,1,3-cyclo-
 C4H6,butadiene  C4H6,1butyne    C4H6,2butyne    C4H6,cyclo-     C4H8,1-butene  
 C4H8,cis2-buten C4H8,tr2-butene C4H8,isobutene  C4H8,cyclo-     (CH3COOH)2     
 C4H9,n-butyl    C4H9,i-butyl    C4H9,s-butyl    C4H9,t-butyl    C4H10,n-butane 
 C4H10,isobutane *C5             C5H6,1,3cyclo-  C5H8,cyclo-     C5H10,1-pentene
 C5H10,cyclo-    C5H11,pentyl    C5H11,t-pentyl  C5H12,n-pentane C5H12,i-pentane
 CH3C(CH3)2CH3   C6H2            C6H5,phenyl     C6H5O,phenoxy   C6H6           
 C6H5OH,phenol   C6H10,cyclo-    C6H12,1-hexene  C6H12,cyclo-    C6H13,n-hexyl  
 C6H14,n-hexane  C7H7,benzyl     C7H8            C7H8O,cresol-mx C7H14,1-heptene
 C7H15,n-heptyl  C7H16,n-heptane C7H16,2-methylh C8H8,styrene    C8H10,ethylbenz
 C8H16,1-octene  C8H17,n-octyl   C8H18,n-octane  C8H18,isooctane C9H19,n-nonyl  
 C10H8,naphthale C10H21,n-decyl  C12H9,o-bipheny C12H10,biphenyl HCCO           
 HCHO,formaldehy HCOOH           (HCOOH)2        O3              C(gr)          
 H2O(cr)         H2O(L)         

 NOTE. WEIGHT FRACTION OF FUEL IN TOTAL FUELS AND OF OXIDANT IN TOTAL OXIDANTS



