
 *******************************************************************************

         NASA-GLENN CHEMICAL EQUILIBRIUM PROGRAM CEA2, MAY 21, 2004
                   BY  BONNIE MCBRIDE AND SANFORD GORDON
      REFS: NASA RP-1311, PART I, 1994 AND NASA RP-1311, PART II, 1996

 *******************************************************************************



 prob rocket fac p,bar=6.12,ac/at=11.294229872,
 o/f=0.85804103542, pi/pe=1, eq
 react
 	oxid=O2  wt=0.972961827466	t,k=584.0
 	oxid=H2O wt=0.0162229035203	t,k=584.0
 	oxid=CO2 wt=0.0108152690136	t,k=584.0
 	fuel=PMMA  wt=100 t,k=293.15
 	h,kj/mol=-442.14  C 5 H 8 O 2
 end

 OPTIONS: TP=F  HP=F  SP=F  TV=F  UV=F  SV=F  DETN=F  SHOCK=F  REFL=F  INCD=F
 RKT=T  FROZ=F  EQL=T  IONS=F  SIUNIT=T  DEBUGF=F  SHKDBG=F  DETDBG=T  TRNSPT=F

 TRACE= 0.00E+00  S/R= 0.000000E+00  H/R= 0.000000E+00  U/R= 0.000000E+00

 Pc,BAR =     6.120000

 Pc/P =     1.0000

 SUBSONIC AREA RATIOS =

 SUPERSONIC AREA RATIOS =

 NFZ=  1  Mdot/Ac= 0.000000E+00  Ac/At= 1.129423E+01

    REACTANT          WT.FRAC   (ENERGY/R),K   TEMP,K  DENSITY
        EXPLODED FORMULA
 O: O2               0.972962   0.105031E+04   584.00  0.0000
          O  2.00000
 O: H2O              0.016223  -0.278915E+05   584.00  0.0000
          H  2.00000  O  1.00000
 O: CO2              0.010815  -0.458663E+05   584.00  0.0000
          C  1.00000  O  2.00000
 F: PMMA             1.000000  -0.531769E+05   293.15  0.0000
          C  5.00000  H  8.00000  O  2.00000

  SPECIES BEING CONSIDERED IN THIS SYSTEM
 (CONDENSED PHASE MAY HAVE NAME LISTED SEVERAL TIMES)
  LAST thermo.inp UPDATE:    9/09/04

  g 7/97  *C               tpis79  *CH              g 4/02  CH2            
  g 4/02  CH3              g11/00  CH2OH            g 7/00  CH3O           
  g 8/99  CH4              g 7/00  CH3OH            srd 01  CH3OOH         
  tpis79  *CO              g 9/99  *CO2             tpis91  COOH           
  tpis91  *C2              g 6/01  C2H              g 1/91  C2H2,acetylene 
  g 5/01  C2H2,vinylidene  g 4/02  CH2CO,ketene     g 3/02  O(CH)2O        
  srd 01  HO(CO)2OH        g 7/01  C2H3,vinyl       g 6/96  CH3CO,acetyl   
  g 1/00  C2H4             g 8/88  C2H4O,ethylen-o  g 8/88  CH3CHO,ethanal 
  g 6/00  CH3COOH          srd 01  OHCH2COOH        g 7/00  C2H5           
  g 7/00  C2H6             g 8/88  C2H5OH           g 7/00  CH3OCH3        
  srd 01  CH3O2CH3         g 8/00  C2O              tpis79  *C3            
  n 4/98  C3H3,1-propynl   n 4/98  C3H3,2-propynl   g 2/00  C3H4,allene    
  g 1/00  C3H4,propyne     g 5/90  C3H4,cyclo-      g 3/01  C3H5,allyl     
  g 2/00  C3H6,propylene   g 1/00  C3H6,cyclo-      g 6/01  C3H6O,propylox 
  g 6/97  C3H6O,acetone    g 1/02  C3H6O,propanal   g 7/01  C3H7,n-propyl  
  g 9/85  C3H7,i-propyl    g 2/00  C3H8             g 2/00  C3H8O,1propanol
  g 2/00  C3H8O,2propanol  g 7/88  C3O2             g tpis  *C4            
  g 7/01  C4H2,butadiyne   g 8/00  C4H4,1,3-cyclo-  n10/92  C4H6,butadiene 
  n10/93  C4H6,1butyne     n10/93  C4H6,2butyne     g 8/00  C4H6,cyclo-    
  n 4/88  C4H8,1-butene    n 4/88  C4H8,cis2-buten  n 4/88  C4H8,tr2-butene
  n 4/88  C4H8,isobutene   g 8/00  C4H8,cyclo-      g10/00  (CH3COOH)2     
  n10/84  C4H9,n-butyl     n10/84  C4H9,i-butyl     g 1/93  C4H9,s-butyl   
  g 1/93  C4H9,t-butyl     g12/00  C4H10,n-butane   g 8/00  C4H10,isobutane
  g 8/00  *C5              g 5/90  C5H6,1,3cyclo-   g 1/93  C5H8,cyclo-    
  n 4/87  C5H10,1-pentene  g 2/01  C5H10,cyclo-     n10/84  C5H11,pentyl   
  g 1/93  C5H11,t-pentyl   n10/85  C5H12,n-pentane  n10/85  C5H12,i-pentane
  n10/85  CH3C(CH3)2CH3    g 2/93  C6H2             g11/00  C6H5,phenyl    
  g 8/00  C6H5O,phenoxy    g 8/00  C6H6             g 8/00  C6H5OH,phenol  
  g 1/93  C6H10,cyclo-     n 4/87  C6H12,1-hexene   g 6/90  C6H12,cyclo-   
  n10/83  C6H13,n-hexyl    g 6/01  C6H14,n-hexane   g 7/01  C7H7,benzyl    
  g 1/93  C7H8             g12/00  C7H8O,cresol-mx  n 4/87  C7H14,1-heptene
  n10/83  C7H15,n-heptyl   n10/85  C7H16,n-heptane  n10/85  C7H16,2-methylh
  n 4/89  C8H8,styrene     n10/86  C8H10,ethylbenz  n 4/87  C8H16,1-octene 
  n10/83  C8H17,n-octyl    n 4/85  C8H18,n-octane   n 4/85  C8H18,isooctane
  n10/83  C9H19,n-nonyl    g 3/01  C10H8,naphthale  n10/83  C10H21,n-decyl 
  g 8/00  C12H9,o-bipheny  g 8/00  C12H10,biphenyl  g 6/97  *H             
  g 1/01  HCO              g 6/01  HCCO             g 4/02  HO2            
  tpis78  *H2              g 5/01  HCHO,formaldehy  g 6/01  HCOOH          
  g 8/89  H2O              g 6/99  H2O2             g 6/01  (HCOOH)2       
  g 5/97  *O               g 4/02  *OH              tpis89  *O2            
  g 8/01  O3               n 4/83  C(gr)            n 4/83  C(gr)          
  n 4/83  C(gr)            g11/99  H2O(cr)          g 8/01  H2O(L)         
  g 8/01  H2O(L)         

 O/F =   0.858041

                       EFFECTIVE FUEL     EFFECTIVE OXIDANT        MIXTURE
 ENTHALPY                  h(2)/R              h(1)/R               h0/R
 (KG-MOL)(K)/KG       -0.53115398E+03     -0.44520503E+01     -0.28792368E+03

 KG-FORM.WT./KG             bi(2)               bi(1)               b0i
  *O                   0.19976863E-01      0.62204400E-01      0.39477487E-01
  *H                   0.79907451E-01      0.18010160E-02      0.43837997E-01
  *C                   0.49942157E-01      0.24574851E-03      0.26992417E-01

 POINT ITN      T            O           H           C 
   1   21    2357.694     -20.827      -9.785     -11.996
   2    2    2357.451     -20.828      -9.800     -12.026
 Pinf/Pt = 1.791977
   3    4    2108.316     -22.193      -9.895     -11.529
 Pinf/Pt = 1.799622
   3    2    2106.560     -22.204      -9.896     -11.524
 Pinf/Pt = 1.799663
   3    1    2106.551     -22.204      -9.896     -11.524
   4    1    2357.327     -20.829      -9.800     -12.026
   4    2    2357.105     -20.830      -9.800     -12.025
   4    2    2356.840     -20.831      -9.800     -12.025
   4    1    2356.719     -20.831      -9.800     -12.025
   4    1    2356.706     -20.832      -9.800     -12.025
   2    2    2357.681     -20.827      -9.786     -11.998
 Pinf/Pt = 1.792091
   3    4    2108.356     -22.193      -9.881     -11.500
 Pinf/Pt = 1.799674
   3    2    2106.614     -22.204      -9.881     -11.496
 Pinf/Pt = 1.799715
   3    1    2106.605     -22.204      -9.881     -11.496
   4    1    2357.557     -20.827      -9.786     -11.998
   4    2    2357.335     -20.828      -9.786     -11.997
   4    2    2357.069     -20.830      -9.786     -11.997
   4    1    2356.948     -20.830      -9.786     -11.997
   4    1    2356.935     -20.830      -9.786     -11.997
 END OF CHAMBER ITERATIONS

 WARNING!!  ASSIGNED pip =   1.00000 IS NOT PERMITTED
 TO BE LESS THAN  Pinj/Pc =  1.00339. POINT OMITTED (ROCKET)





              THEORETICAL ROCKET PERFORMANCE ASSUMING EQUILIBRIUM

            COMPOSITION DURING EXPANSION FROM FINITE AREA COMBUSTOR

 Pin =    88.8 PSIA
 Ac/At = 11.2942      Pinj/Pinf =  1.001689
 CASE =                

             REACTANT                    WT FRACTION      ENERGY      TEMP
                                          (SEE NOTE)     KJ/KG-MOL      K  
 OXIDANT     O2                           0.9729618      8732.845    584.000
 OXIDANT     H2O                          0.0162229   -231904.341    584.000
 OXIDANT     CO2                          0.0108153   -381355.415    584.000
 FUEL        PMMA                         1.0000000   -442140.000    293.150

 O/F=    0.85804  %FUEL= 53.820125  R,EQ.RATIO= 1.922712  PHI,EQ.RATIO= 2.297092

                 INJECTOR  COMB END  THROAT
 Pinj/P            1.0000   1.0034   1.8028
 P, BAR            6.1200   6.0993   3.3948
 T, K             2357.69  2356.94  2106.60
 RHO, KG/CU M    6.3732-1 6.3538-1 3.9607-1
 H, KJ/KG        -2393.94 -2395.57 -2927.54
 U, KJ/KG        -3354.22 -3355.53 -3784.67
 G, KJ/KG        -30873.7 -30867.7 -28375.7
 S, KJ/(KG)(K)    12.0795  12.0802  12.0802

 M, (1/n)          20.414   20.414   20.435
 (dLV/dLP)t      -1.00076 -1.00076 -1.00025
 (dLV/dLT)p        1.0182   1.0182   1.0065
 Cp, KJ/(KG)(K)    2.2203   2.2200   2.0915
 GAMMAs            1.2337   1.2337   1.2451
 SON VEL,M/SEC     1088.4   1088.3   1033.1
 MACH NUMBER        0.000    0.052    1.000

 PERFORMANCE PARAMETERS

 Ae/At                      11.295   1.0000
 CSTAR, M/SEC               1493.2   1493.2
 CF                         0.0382   0.6918
 Ivac, M/SEC               16894.6   1862.8
 Isp, M/SEC                   57.0   1033.1


 MOLE FRACTIONS

 *CO              0.48770  0.48769  0.48245
 *CO2             0.06332  0.06334  0.06914
 *H               0.00265  0.00264  0.00090
 *H2              0.25478  0.25479  0.26151
 H2O              0.19116  0.19115  0.18591
 *OH              0.00038  0.00038  0.00009

  * THERMODYNAMIC PROPERTIES FITTED TO 20000.K

    PRODUCTS WHICH WERE CONSIDERED BUT WHOSE MOLE FRACTIONS
    WERE LESS THAN 5.000000E-06 FOR ALL ASSIGNED CONDITIONS

 *C              *CH             CH2             CH3             CH2OH          
 CH3O            CH4             CH3OH           CH3OOH          COOH           
 *C2             C2H             C2H2,acetylene  C2H2,vinylidene CH2CO,ketene   
 O(CH)2O         HO(CO)2OH       C2H3,vinyl      CH3CO,acetyl    C2H4           
 C2H4O,ethylen-o CH3CHO,ethanal  CH3COOH         OHCH2COOH       C2H5           
 C2H6            C2H5OH          CH3OCH3         CH3O2CH3        C2O            
 *C3             C3H3,1-propynl  C3H3,2-propynl  C3H4,allene     C3H4,propyne   
 C3H4,cyclo-     C3H5,allyl      C3H6,propylene  C3H6,cyclo-     C3H6O,propylox 
 C3H6O,acetone   C3H6O,propanal  C3H7,n-propyl   C3H7,i-propyl   C3H8           
 C3H8O,1propanol C3H8O,2propanol C3O2            *C4             C4H2,butadiyne 
 C4H4,1,3-cyclo- C4H6,butadiene  C4H6,1butyne    C4H6,2butyne    C4H6,cyclo-    
 C4H8,1-butene   C4H8,cis2-buten C4H8,tr2-butene C4H8,isobutene  C4H8,cyclo-    
 (CH3COOH)2      C4H9,n-butyl    C4H9,i-butyl    C4H9,s-butyl    C4H9,t-butyl   
 C4H10,n-butane  C4H10,isobutane *C5             C5H6,1,3cyclo-  C5H8,cyclo-    
 C5H10,1-pentene C5H10,cyclo-    C5H11,pentyl    C5H11,t-pentyl  C5H12,n-pentane
 C5H12,i-pentane CH3C(CH3)2CH3   C6H2            C6H5,phenyl     C6H5O,phenoxy  
 C6H6            C6H5OH,phenol   C6H10,cyclo-    C6H12,1-hexene  C6H12,cyclo-   
 C6H13,n-hexyl   C6H14,n-hexane  C7H7,benzyl     C7H8            C7H8O,cresol-mx
 C7H14,1-heptene C7H15,n-heptyl  C7H16,n-heptane C7H16,2-methylh C8H8,styrene   
 C8H10,ethylbenz C8H16,1-octene  C8H17,n-octyl   C8H18,n-octane  C8H18,isooctane
 C9H19,n-nonyl   C10H8,naphthale C10H21,n-decyl  C12H9,o-bipheny C12H10,biphenyl
 HCO             HCCO            HO2             HCHO,formaldehy HCOOH          
 H2O2            (HCOOH)2        *O              *O2             O3             
 C(gr)           H2O(cr)         H2O(L)         

 NOTE. WEIGHT FRACTION OF FUEL IN TOTAL FUELS AND OF OXIDANT IN TOTAL OXIDANTS






 WARNING!!  ASSIGNED pip =   0.00000 IS NOT PERMITTED
 TO BE LESS THAN  Pinj/Pc =  1.00339. POINT OMITTED (ROCKET)





              THEORETICAL ROCKET PERFORMANCE ASSUMING EQUILIBRIUM

            COMPOSITION DURING EXPANSION FROM FINITE AREA COMBUSTOR

 Pin =    88.8 PSIA
 Ac/At = 11.2942      Pinj/Pinf =  1.001689
 CASE =                

             REACTANT                    WT FRACTION      ENERGY      TEMP
                                          (SEE NOTE)     KJ/KG-MOL      K  
 OXIDANT     O2                           0.9729618      8732.845    584.000
 OXIDANT     H2O                          0.0162229   -231904.341    584.000
 OXIDANT     CO2                          0.0108153   -381355.415    584.000
 FUEL        PMMA                         1.0000000   -442140.000    293.150

 O/F=    0.85804  %FUEL= 53.820125  R,EQ.RATIO= 1.922712  PHI,EQ.RATIO= 2.297092

                 INJECTOR  COMB END  THROAT
 Pinj/P            1.0000   1.0034   1.8028
 P, BAR            6.1200   6.0993   3.3948
 T, K             2357.69  2356.94  2106.60
 RHO, KG/CU M    6.3732-1 6.3538-1 3.9607-1
 H, KJ/KG        -2393.94 -2395.57 -2927.54
 U, KJ/KG        -3354.22 -3355.53 -3784.67
 G, KJ/KG        -30873.7 -30867.7 -28375.7
 S, KJ/(KG)(K)    12.0795  12.0802  12.0802

 M, (1/n)          20.414   20.414   20.435
 (dLV/dLP)t      -1.00076 -1.00076 -1.00025
 (dLV/dLT)p        1.0182   1.0182   1.0065
 Cp, KJ/(KG)(K)    2.2203   2.2200   2.0915
 GAMMAs            1.2337   1.2337   1.2451
 SON VEL,M/SEC     1088.4   1088.3   1033.1
 MACH NUMBER        0.000    0.052    1.000

 PERFORMANCE PARAMETERS

 Ae/At                      11.295   1.0000
 CSTAR, M/SEC               1493.2   1493.2
 CF                         0.0382   0.6918
 Ivac, M/SEC               16894.6   1862.8
 Isp, M/SEC                   57.0   1033.1


 MOLE FRACTIONS

 *CO              0.48770  0.48769  0.48245
 *CO2             0.06332  0.06334  0.06914
 *H               0.00265  0.00264  0.00090
 *H2              0.25478  0.25479  0.26151
 H2O              0.19116  0.19115  0.18591
 *OH              0.00038  0.00038  0.00009

  * THERMODYNAMIC PROPERTIES FITTED TO 20000.K

    PRODUCTS WHICH WERE CONSIDERED BUT WHOSE MOLE FRACTIONS
    WERE LESS THAN 5.000000E-06 FOR ALL ASSIGNED CONDITIONS

 *C              *CH             CH2             CH3             CH2OH          
 CH3O            CH4             CH3OH           CH3OOH          COOH           
 *C2             C2H             C2H2,acetylene  C2H2,vinylidene CH2CO,ketene   
 O(CH)2O         HO(CO)2OH       C2H3,vinyl      CH3CO,acetyl    C2H4           
 C2H4O,ethylen-o CH3CHO,ethanal  CH3COOH         OHCH2COOH       C2H5           
 C2H6            C2H5OH          CH3OCH3         CH3O2CH3        C2O            
 *C3             C3H3,1-propynl  C3H3,2-propynl  C3H4,allene     C3H4,propyne   
 C3H4,cyclo-     C3H5,allyl      C3H6,propylene  C3H6,cyclo-     C3H6O,propylox 
 C3H6O,acetone   C3H6O,propanal  C3H7,n-propyl   C3H7,i-propyl   C3H8           
 C3H8O,1propanol C3H8O,2propanol C3O2            *C4             C4H2,butadiyne 
 C4H4,1,3-cyclo- C4H6,butadiene  C4H6,1butyne    C4H6,2butyne    C4H6,cyclo-    
 C4H8,1-butene   C4H8,cis2-buten C4H8,tr2-butene C4H8,isobutene  C4H8,cyclo-    
 (CH3COOH)2      C4H9,n-butyl    C4H9,i-butyl    C4H9,s-butyl    C4H9,t-butyl   
 C4H10,n-butane  C4H10,isobutane *C5             C5H6,1,3cyclo-  C5H8,cyclo-    
 C5H10,1-pentene C5H10,cyclo-    C5H11,pentyl    C5H11,t-pentyl  C5H12,n-pentane
 C5H12,i-pentane CH3C(CH3)2CH3   C6H2            C6H5,phenyl     C6H5O,phenoxy  
 C6H6            C6H5OH,phenol   C6H10,cyclo-    C6H12,1-hexene  C6H12,cyclo-   
 C6H13,n-hexyl   C6H14,n-hexane  C7H7,benzyl     C7H8            C7H8O,cresol-mx
 C7H14,1-heptene C7H15,n-heptyl  C7H16,n-heptane C7H16,2-methylh C8H8,styrene   
 C8H10,ethylbenz C8H16,1-octene  C8H17,n-octyl   C8H18,n-octane  C8H18,isooctane
 C9H19,n-nonyl   C10H8,naphthale C10H21,n-decyl  C12H9,o-bipheny C12H10,biphenyl
 HCO             HCCO            HO2             HCHO,formaldehy HCOOH          
 H2O2            (HCOOH)2        *O              *O2             O3             
 C(gr)           H2O(cr)         H2O(L)         

 NOTE. WEIGHT FRACTION OF FUEL IN TOTAL FUELS AND OF OXIDANT IN TOTAL OXIDANTS






 WARNING!!  ASSIGNED pip =   0.00000 IS NOT PERMITTED
 TO BE LESS THAN  Pinj/Pc =  1.00339. POINT OMITTED (ROCKET)





              THEORETICAL ROCKET PERFORMANCE ASSUMING EQUILIBRIUM

            COMPOSITION DURING EXPANSION FROM FINITE AREA COMBUSTOR

 Pin =    88.8 PSIA
 Ac/At = 11.2942      Pinj/Pinf =  1.001689
 CASE =                

             REACTANT                    WT FRACTION      ENERGY      TEMP
                                          (SEE NOTE)     KJ/KG-MOL      K  
 OXIDANT     O2                           0.9729618      8732.845    584.000
 OXIDANT     H2O                          0.0162229   -231904.341    584.000
 OXIDANT     CO2                          0.0108153   -381355.415    584.000
 FUEL        PMMA                         1.0000000   -442140.000    293.150

 O/F=    0.85804  %FUEL= 53.820125  R,EQ.RATIO= 1.922712  PHI,EQ.RATIO= 2.297092

                 INJECTOR  COMB END  THROAT
 Pinj/P            1.0000   1.0034   1.8028
 P, BAR            6.1200   6.0993   3.3948
 T, K             2357.69  2356.94  2106.60
 RHO, KG/CU M    6.3732-1 6.3538-1 3.9607-1
 H, KJ/KG        -2393.94 -2395.57 -2927.54
 U, KJ/KG        -3354.22 -3355.53 -3784.67
 G, KJ/KG        -30873.7 -30867.7 -28375.7
 S, KJ/(KG)(K)    12.0795  12.0802  12.0802

 M, (1/n)          20.414   20.414   20.435
 (dLV/dLP)t      -1.00076 -1.00076 -1.00025
 (dLV/dLT)p        1.0182   1.0182   1.0065
 Cp, KJ/(KG)(K)    2.2203   2.2200   2.0915
 GAMMAs            1.2337   1.2337   1.2451
 SON VEL,M/SEC     1088.4   1088.3   1033.1
 MACH NUMBER        0.000    0.052    1.000

 PERFORMANCE PARAMETERS

 Ae/At                      11.295   1.0000
 CSTAR, M/SEC               1493.2   1493.2
 CF                         0.0382   0.6918
 Ivac, M/SEC               16894.6   1862.8
 Isp, M/SEC                   57.0   1033.1


 MOLE FRACTIONS

 *CO              0.48770  0.48769  0.48245
 *CO2             0.06332  0.06334  0.06914
 *H               0.00265  0.00264  0.00090
 *H2              0.25478  0.25479  0.26151
 H2O              0.19116  0.19115  0.18591
 *OH              0.00038  0.00038  0.00009

  * THERMODYNAMIC PROPERTIES FITTED TO 20000.K

    PRODUCTS WHICH WERE CONSIDERED BUT WHOSE MOLE FRACTIONS
    WERE LESS THAN 5.000000E-06 FOR ALL ASSIGNED CONDITIONS

 *C              *CH             CH2             CH3             CH2OH          
 CH3O            CH4             CH3OH           CH3OOH          COOH           
 *C2             C2H             C2H2,acetylene  C2H2,vinylidene CH2CO,ketene   
 O(CH)2O         HO(CO)2OH       C2H3,vinyl      CH3CO,acetyl    C2H4           
 C2H4O,ethylen-o CH3CHO,ethanal  CH3COOH         OHCH2COOH       C2H5           
 C2H6            C2H5OH          CH3OCH3         CH3O2CH3        C2O            
 *C3             C3H3,1-propynl  C3H3,2-propynl  C3H4,allene     C3H4,propyne   
 C3H4,cyclo-     C3H5,allyl      C3H6,propylene  C3H6,cyclo-     C3H6O,propylox 
 C3H6O,acetone   C3H6O,propanal  C3H7,n-propyl   C3H7,i-propyl   C3H8           
 C3H8O,1propanol C3H8O,2propanol C3O2            *C4             C4H2,butadiyne 
 C4H4,1,3-cyclo- C4H6,butadiene  C4H6,1butyne    C4H6,2butyne    C4H6,cyclo-    
 C4H8,1-butene   C4H8,cis2-buten C4H8,tr2-butene C4H8,isobutene  C4H8,cyclo-    
 (CH3COOH)2      C4H9,n-butyl    C4H9,i-butyl    C4H9,s-butyl    C4H9,t-butyl   
 C4H10,n-butane  C4H10,isobutane *C5             C5H6,1,3cyclo-  C5H8,cyclo-    
 C5H10,1-pentene C5H10,cyclo-    C5H11,pentyl    C5H11,t-pentyl  C5H12,n-pentane
 C5H12,i-pentane CH3C(CH3)2CH3   C6H2            C6H5,phenyl     C6H5O,phenoxy  
 C6H6            C6H5OH,phenol   C6H10,cyclo-    C6H12,1-hexene  C6H12,cyclo-   
 C6H13,n-hexyl   C6H14,n-hexane  C7H7,benzyl     C7H8            C7H8O,cresol-mx
 C7H14,1-heptene C7H15,n-heptyl  C7H16,n-heptane C7H16,2-methylh C8H8,styrene   
 C8H10,ethylbenz C8H16,1-octene  C8H17,n-octyl   C8H18,n-octane  C8H18,isooctane
 C9H19,n-nonyl   C10H8,naphthale C10H21,n-decyl  C12H9,o-bipheny C12H10,biphenyl
 HCO             HCCO            HO2             HCHO,formaldehy HCOOH          
 H2O2            (HCOOH)2        *O              *O2             O3             
 C(gr)           H2O(cr)         H2O(L)         

 NOTE. WEIGHT FRACTION OF FUEL IN TOTAL FUELS AND OF OXIDANT IN TOTAL OXIDANTS






 WARNING!!  ASSIGNED pip =   0.00000 IS NOT PERMITTED
 TO BE LESS THAN  Pinj/Pc =  1.00339. POINT OMITTED (ROCKET)





              THEORETICAL ROCKET PERFORMANCE ASSUMING EQUILIBRIUM

            COMPOSITION DURING EXPANSION FROM FINITE AREA COMBUSTOR

 Pin =    88.8 PSIA
 Ac/At = 11.2942      Pinj/Pinf =  1.001689
 CASE =                

             REACTANT                    WT FRACTION      ENERGY      TEMP
                                          (SEE NOTE)     KJ/KG-MOL      K  
 OXIDANT     O2                           0.9729618      8732.845    584.000
 OXIDANT     H2O                          0.0162229   -231904.341    584.000
 OXIDANT     CO2                          0.0108153   -381355.415    584.000
 FUEL        PMMA                         1.0000000   -442140.000    293.150

 O/F=    0.85804  %FUEL= 53.820125  R,EQ.RATIO= 1.922712  PHI,EQ.RATIO= 2.297092

                 INJECTOR  COMB END  THROAT
 Pinj/P            1.0000   1.0034   1.8028
 P, BAR            6.1200   6.0993   3.3948
 T, K             2357.69  2356.94  2106.60
 RHO, KG/CU M    6.3732-1 6.3538-1 3.9607-1
 H, KJ/KG        -2393.94 -2395.57 -2927.54
 U, KJ/KG        -3354.22 -3355.53 -3784.67
 G, KJ/KG        -30873.7 -30867.7 -28375.7
 S, KJ/(KG)(K)    12.0795  12.0802  12.0802

 M, (1/n)          20.414   20.414   20.435
 (dLV/dLP)t      -1.00076 -1.00076 -1.00025
 (dLV/dLT)p        1.0182   1.0182   1.0065
 Cp, KJ/(KG)(K)    2.2203   2.2200   2.0915
 GAMMAs            1.2337   1.2337   1.2451
 SON VEL,M/SEC     1088.4   1088.3   1033.1
 MACH NUMBER        0.000    0.052    1.000

 PERFORMANCE PARAMETERS

 Ae/At                      11.295   1.0000
 CSTAR, M/SEC               1493.2   1493.2
 CF                         0.0382   0.6918
 Ivac, M/SEC               16894.6   1862.8
 Isp, M/SEC                   57.0   1033.1


 MOLE FRACTIONS

 *CO              0.48770  0.48769  0.48245
 *CO2             0.06332  0.06334  0.06914
 *H               0.00265  0.00264  0.00090
 *H2              0.25478  0.25479  0.26151
 H2O              0.19116  0.19115  0.18591
 *OH              0.00038  0.00038  0.00009

  * THERMODYNAMIC PROPERTIES FITTED TO 20000.K

    PRODUCTS WHICH WERE CONSIDERED BUT WHOSE MOLE FRACTIONS
    WERE LESS THAN 5.000000E-06 FOR ALL ASSIGNED CONDITIONS

 *C              *CH             CH2             CH3             CH2OH          
 CH3O            CH4             CH3OH           CH3OOH          COOH           
 *C2             C2H             C2H2,acetylene  C2H2,vinylidene CH2CO,ketene   
 O(CH)2O         HO(CO)2OH       C2H3,vinyl      CH3CO,acetyl    C2H4           
 C2H4O,ethylen-o CH3CHO,ethanal  CH3COOH         OHCH2COOH       C2H5           
 C2H6            C2H5OH          CH3OCH3         CH3O2CH3        C2O            
 *C3             C3H3,1-propynl  C3H3,2-propynl  C3H4,allene     C3H4,propyne   
 C3H4,cyclo-     C3H5,allyl      C3H6,propylene  C3H6,cyclo-     C3H6O,propylox 
 C3H6O,acetone   C3H6O,propanal  C3H7,n-propyl   C3H7,i-propyl   C3H8           
 C3H8O,1propanol C3H8O,2propanol C3O2            *C4             C4H2,butadiyne 
 C4H4,1,3-cyclo- C4H6,butadiene  C4H6,1butyne    C4H6,2butyne    C4H6,cyclo-    
 C4H8,1-butene   C4H8,cis2-buten C4H8,tr2-butene C4H8,isobutene  C4H8,cyclo-    
 (CH3COOH)2      C4H9,n-butyl    C4H9,i-butyl    C4H9,s-butyl    C4H9,t-butyl   
 C4H10,n-butane  C4H10,isobutane *C5             C5H6,1,3cyclo-  C5H8,cyclo-    
 C5H10,1-pentene C5H10,cyclo-    C5H11,pentyl    C5H11,t-pentyl  C5H12,n-pentane
 C5H12,i-pentane CH3C(CH3)2CH3   C6H2            C6H5,phenyl     C6H5O,phenoxy  
 C6H6            C6H5OH,phenol   C6H10,cyclo-    C6H12,1-hexene  C6H12,cyclo-   
 C6H13,n-hexyl   C6H14,n-hexane  C7H7,benzyl     C7H8            C7H8O,cresol-mx
 C7H14,1-heptene C7H15,n-heptyl  C7H16,n-heptane C7H16,2-methylh C8H8,styrene   
 C8H10,ethylbenz C8H16,1-octene  C8H17,n-octyl   C8H18,n-octane  C8H18,isooctane
 C9H19,n-nonyl   C10H8,naphthale C10H21,n-decyl  C12H9,o-bipheny C12H10,biphenyl
 HCO             HCCO            HO2             HCHO,formaldehy HCOOH          
 H2O2            (HCOOH)2        *O              *O2             O3             
 C(gr)           H2O(cr)         H2O(L)         

 NOTE. WEIGHT FRACTION OF FUEL IN TOTAL FUELS AND OF OXIDANT IN TOTAL OXIDANTS






 WARNING!!  ASSIGNED pip =   0.00000 IS NOT PERMITTED
 TO BE LESS THAN  Pinj/Pc =  1.00339. POINT OMITTED (ROCKET)





              THEORETICAL ROCKET PERFORMANCE ASSUMING EQUILIBRIUM

            COMPOSITION DURING EXPANSION FROM FINITE AREA COMBUSTOR

 Pin =    88.8 PSIA
 Ac/At = 11.2942      Pinj/Pinf =  1.001689
 CASE =                

             REACTANT                    WT FRACTION      ENERGY      TEMP
                                          (SEE NOTE)     KJ/KG-MOL      K  
 OXIDANT     O2                           0.9729618      8732.845    584.000
 OXIDANT     H2O                          0.0162229   -231904.341    584.000
 OXIDANT     CO2                          0.0108153   -381355.415    584.000
 FUEL        PMMA                         1.0000000   -442140.000    293.150

 O/F=    0.85804  %FUEL= 53.820125  R,EQ.RATIO= 1.922712  PHI,EQ.RATIO= 2.297092

                 INJECTOR  COMB END  THROAT
 Pinj/P            1.0000   1.0034   1.8028
 P, BAR            6.1200   6.0993   3.3948
 T, K             2357.69  2356.94  2106.60
 RHO, KG/CU M    6.3732-1 6.3538-1 3.9607-1
 H, KJ/KG        -2393.94 -2395.57 -2927.54
 U, KJ/KG        -3354.22 -3355.53 -3784.67
 G, KJ/KG        -30873.7 -30867.7 -28375.7
 S, KJ/(KG)(K)    12.0795  12.0802  12.0802

 M, (1/n)          20.414   20.414   20.435
 (dLV/dLP)t      -1.00076 -1.00076 -1.00025
 (dLV/dLT)p        1.0182   1.0182   1.0065
 Cp, KJ/(KG)(K)    2.2203   2.2200   2.0915
 GAMMAs            1.2337   1.2337   1.2451
 SON VEL,M/SEC     1088.4   1088.3   1033.1
 MACH NUMBER        0.000    0.052    1.000

 PERFORMANCE PARAMETERS

 Ae/At                      11.295   1.0000
 CSTAR, M/SEC               1493.2   1493.2
 CF                         0.0382   0.6918
 Ivac, M/SEC               16894.6   1862.8
 Isp, M/SEC                   57.0   1033.1


 MOLE FRACTIONS

 *CO              0.48770  0.48769  0.48245
 *CO2             0.06332  0.06334  0.06914
 *H               0.00265  0.00264  0.00090
 *H2              0.25478  0.25479  0.26151
 H2O              0.19116  0.19115  0.18591
 *OH              0.00038  0.00038  0.00009

  * THERMODYNAMIC PROPERTIES FITTED TO 20000.K

    PRODUCTS WHICH WERE CONSIDERED BUT WHOSE MOLE FRACTIONS
    WERE LESS THAN 5.000000E-06 FOR ALL ASSIGNED CONDITIONS

 *C              *CH             CH2             CH3             CH2OH          
 CH3O            CH4             CH3OH           CH3OOH          COOH           
 *C2             C2H             C2H2,acetylene  C2H2,vinylidene CH2CO,ketene   
 O(CH)2O         HO(CO)2OH       C2H3,vinyl      CH3CO,acetyl    C2H4           
 C2H4O,ethylen-o CH3CHO,ethanal  CH3COOH         OHCH2COOH       C2H5           
 C2H6            C2H5OH          CH3OCH3         CH3O2CH3        C2O            
 *C3             C3H3,1-propynl  C3H3,2-propynl  C3H4,allene     C3H4,propyne   
 C3H4,cyclo-     C3H5,allyl      C3H6,propylene  C3H6,cyclo-     C3H6O,propylox 
 C3H6O,acetone   C3H6O,propanal  C3H7,n-propyl   C3H7,i-propyl   C3H8           
 C3H8O,1propanol C3H8O,2propanol C3O2            *C4             C4H2,butadiyne 
 C4H4,1,3-cyclo- C4H6,butadiene  C4H6,1butyne    C4H6,2butyne    C4H6,cyclo-    
 C4H8,1-butene   C4H8,cis2-buten C4H8,tr2-butene C4H8,isobutene  C4H8,cyclo-    
 (CH3COOH)2      C4H9,n-butyl    C4H9,i-butyl    C4H9,s-butyl    C4H9,t-butyl   
 C4H10,n-butane  C4H10,isobutane *C5             C5H6,1,3cyclo-  C5H8,cyclo-    
 C5H10,1-pentene C5H10,cyclo-    C5H11,pentyl    C5H11,t-pentyl  C5H12,n-pentane
 C5H12,i-pentane CH3C(CH3)2CH3   C6H2            C6H5,phenyl     C6H5O,phenoxy  
 C6H6            C6H5OH,phenol   C6H10,cyclo-    C6H12,1-hexene  C6H12,cyclo-   
 C6H13,n-hexyl   C6H14,n-hexane  C7H7,benzyl     C7H8            C7H8O,cresol-mx
 C7H14,1-heptene C7H15,n-heptyl  C7H16,n-heptane C7H16,2-methylh C8H8,styrene   
 C8H10,ethylbenz C8H16,1-octene  C8H17,n-octyl   C8H18,n-octane  C8H18,isooctane
 C9H19,n-nonyl   C10H8,naphthale C10H21,n-decyl  C12H9,o-bipheny C12H10,biphenyl
 HCO             HCCO            HO2             HCHO,formaldehy HCOOH          
 H2O2            (HCOOH)2        *O              *O2             O3             
 C(gr)           H2O(cr)         H2O(L)         

 NOTE. WEIGHT FRACTION OF FUEL IN TOTAL FUELS AND OF OXIDANT IN TOTAL OXIDANTS






 WARNING!!  ASSIGNED pip =   0.00000 IS NOT PERMITTED
 TO BE LESS THAN  Pinj/Pc =  1.00339. POINT OMITTED (ROCKET)





              THEORETICAL ROCKET PERFORMANCE ASSUMING EQUILIBRIUM

            COMPOSITION DURING EXPANSION FROM FINITE AREA COMBUSTOR

 Pin =    88.8 PSIA
 Ac/At = 11.2942      Pinj/Pinf =  1.001689
 CASE =                

             REACTANT                    WT FRACTION      ENERGY      TEMP
                                          (SEE NOTE)     KJ/KG-MOL      K  
 OXIDANT     O2                           0.9729618      8732.845    584.000
 OXIDANT     H2O                          0.0162229   -231904.341    584.000
 OXIDANT     CO2                          0.0108153   -381355.415    584.000
 FUEL        PMMA                         1.0000000   -442140.000    293.150

 O/F=    0.85804  %FUEL= 53.820125  R,EQ.RATIO= 1.922712  PHI,EQ.RATIO= 2.297092

                 INJECTOR  COMB END  THROAT
 Pinj/P            1.0000   1.0034   1.8028
 P, BAR            6.1200   6.0993   3.3948
 T, K             2357.69  2356.94  2106.60
 RHO, KG/CU M    6.3732-1 6.3538-1 3.9607-1
 H, KJ/KG        -2393.94 -2395.57 -2927.54
 U, KJ/KG        -3354.22 -3355.53 -3784.67
 G, KJ/KG        -30873.7 -30867.7 -28375.7
 S, KJ/(KG)(K)    12.0795  12.0802  12.0802

 M, (1/n)          20.414   20.414   20.435
 (dLV/dLP)t      -1.00076 -1.00076 -1.00025
 (dLV/dLT)p        1.0182   1.0182   1.0065
 Cp, KJ/(KG)(K)    2.2203   2.2200   2.0915
 GAMMAs            1.2337   1.2337   1.2451
 SON VEL,M/SEC     1088.4   1088.3   1033.1
 MACH NUMBER        0.000    0.052    1.000

 PERFORMANCE PARAMETERS

 Ae/At                      11.295   1.0000
 CSTAR, M/SEC               1493.2   1493.2
 CF                         0.0382   0.6918
 Ivac, M/SEC               16894.6   1862.8
 Isp, M/SEC                   57.0   1033.1


 MOLE FRACTIONS

 *CO              0.48770  0.48769  0.48245
 *CO2             0.06332  0.06334  0.06914
 *H               0.00265  0.00264  0.00090
 *H2              0.25478  0.25479  0.26151
 H2O              0.19116  0.19115  0.18591
 *OH              0.00038  0.00038  0.00009

  * THERMODYNAMIC PROPERTIES FITTED TO 20000.K

    PRODUCTS WHICH WERE CONSIDERED BUT WHOSE MOLE FRACTIONS
    WERE LESS THAN 5.000000E-06 FOR ALL ASSIGNED CONDITIONS

 *C              *CH             CH2             CH3             CH2OH          
 CH3O            CH4             CH3OH           CH3OOH          COOH           
 *C2             C2H             C2H2,acetylene  C2H2,vinylidene CH2CO,ketene   
 O(CH)2O         HO(CO)2OH       C2H3,vinyl      CH3CO,acetyl    C2H4           
 C2H4O,ethylen-o CH3CHO,ethanal  CH3COOH         OHCH2COOH       C2H5           
 C2H6            C2H5OH          CH3OCH3         CH3O2CH3        C2O            
 *C3             C3H3,1-propynl  C3H3,2-propynl  C3H4,allene     C3H4,propyne   
 C3H4,cyclo-     C3H5,allyl      C3H6,propylene  C3H6,cyclo-     C3H6O,propylox 
 C3H6O,acetone   C3H6O,propanal  C3H7,n-propyl   C3H7,i-propyl   C3H8           
 C3H8O,1propanol C3H8O,2propanol C3O2            *C4             C4H2,butadiyne 
 C4H4,1,3-cyclo- C4H6,butadiene  C4H6,1butyne    C4H6,2butyne    C4H6,cyclo-    
 C4H8,1-butene   C4H8,cis2-buten C4H8,tr2-butene C4H8,isobutene  C4H8,cyclo-    
 (CH3COOH)2      C4H9,n-butyl    C4H9,i-butyl    C4H9,s-butyl    C4H9,t-butyl   
 C4H10,n-butane  C4H10,isobutane *C5             C5H6,1,3cyclo-  C5H8,cyclo-    
 C5H10,1-pentene C5H10,cyclo-    C5H11,pentyl    C5H11,t-pentyl  C5H12,n-pentane
 C5H12,i-pentane CH3C(CH3)2CH3   C6H2            C6H5,phenyl     C6H5O,phenoxy  
 C6H6            C6H5OH,phenol   C6H10,cyclo-    C6H12,1-hexene  C6H12,cyclo-   
 C6H13,n-hexyl   C6H14,n-hexane  C7H7,benzyl     C7H8            C7H8O,cresol-mx
 C7H14,1-heptene C7H15,n-heptyl  C7H16,n-heptane C7H16,2-methylh C8H8,styrene   
 C8H10,ethylbenz C8H16,1-octene  C8H17,n-octyl   C8H18,n-octane  C8H18,isooctane
 C9H19,n-nonyl   C10H8,naphthale C10H21,n-decyl  C12H9,o-bipheny C12H10,biphenyl
 HCO             HCCO            HO2             HCHO,formaldehy HCOOH          
 H2O2            (HCOOH)2        *O              *O2             O3             
 C(gr)           H2O(cr)         H2O(L)         

 NOTE. WEIGHT FRACTION OF FUEL IN TOTAL FUELS AND OF OXIDANT IN TOTAL OXIDANTS






 WARNING!!  ASSIGNED pip =   0.00000 IS NOT PERMITTED
 TO BE LESS THAN  Pinj/Pc =  1.00339. POINT OMITTED (ROCKET)





              THEORETICAL ROCKET PERFORMANCE ASSUMING EQUILIBRIUM

            COMPOSITION DURING EXPANSION FROM FINITE AREA COMBUSTOR

 Pin =    88.8 PSIA
 Ac/At = 11.2942      Pinj/Pinf =  1.001689
 CASE =                

             REACTANT                    WT FRACTION      ENERGY      TEMP
                                          (SEE NOTE)     KJ/KG-MOL      K  
 OXIDANT     O2                           0.9729618      8732.845    584.000
 OXIDANT     H2O                          0.0162229   -231904.341    584.000
 OXIDANT     CO2                          0.0108153   -381355.415    584.000
 FUEL        PMMA                         1.0000000   -442140.000    293.150

 O/F=    0.85804  %FUEL= 53.820125  R,EQ.RATIO= 1.922712  PHI,EQ.RATIO= 2.297092

                 INJECTOR  COMB END  THROAT
 Pinj/P            1.0000   1.0034   1.8028
 P, BAR            6.1200   6.0993   3.3948
 T, K             2357.69  2356.94  2106.60
 RHO, KG/CU M    6.3732-1 6.3538-1 3.9607-1
 H, KJ/KG        -2393.94 -2395.57 -2927.54
 U, KJ/KG        -3354.22 -3355.53 -3784.67
 G, KJ/KG        -30873.7 -30867.7 -28375.7
 S, KJ/(KG)(K)    12.0795  12.0802  12.0802

 M, (1/n)          20.414   20.414   20.435
 (dLV/dLP)t      -1.00076 -1.00076 -1.00025
 (dLV/dLT)p        1.0182   1.0182   1.0065
 Cp, KJ/(KG)(K)    2.2203   2.2200   2.0915
 GAMMAs            1.2337   1.2337   1.2451
 SON VEL,M/SEC     1088.4   1088.3   1033.1
 MACH NUMBER        0.000    0.052    1.000

 PERFORMANCE PARAMETERS

 Ae/At                      11.295   1.0000
 CSTAR, M/SEC               1493.2   1493.2
 CF                         0.0382   0.6918
 Ivac, M/SEC               16894.6   1862.8
 Isp, M/SEC                   57.0   1033.1


 MOLE FRACTIONS

 *CO              0.48770  0.48769  0.48245
 *CO2             0.06332  0.06334  0.06914
 *H               0.00265  0.00264  0.00090
 *H2              0.25478  0.25479  0.26151
 H2O              0.19116  0.19115  0.18591
 *OH              0.00038  0.00038  0.00009

  * THERMODYNAMIC PROPERTIES FITTED TO 20000.K

    PRODUCTS WHICH WERE CONSIDERED BUT WHOSE MOLE FRACTIONS
    WERE LESS THAN 5.000000E-06 FOR ALL ASSIGNED CONDITIONS

 *C              *CH             CH2             CH3             CH2OH          
 CH3O            CH4             CH3OH           CH3OOH          COOH           
 *C2             C2H             C2H2,acetylene  C2H2,vinylidene CH2CO,ketene   
 O(CH)2O         HO(CO)2OH       C2H3,vinyl      CH3CO,acetyl    C2H4           
 C2H4O,ethylen-o CH3CHO,ethanal  CH3COOH         OHCH2COOH       C2H5           
 C2H6            C2H5OH          CH3OCH3         CH3O2CH3        C2O            
 *C3             C3H3,1-propynl  C3H3,2-propynl  C3H4,allene     C3H4,propyne   
 C3H4,cyclo-     C3H5,allyl      C3H6,propylene  C3H6,cyclo-     C3H6O,propylox 
 C3H6O,acetone   C3H6O,propanal  C3H7,n-propyl   C3H7,i-propyl   C3H8           
 C3H8O,1propanol C3H8O,2propanol C3O2            *C4             C4H2,butadiyne 
 C4H4,1,3-cyclo- C4H6,butadiene  C4H6,1butyne    C4H6,2butyne    C4H6,cyclo-    
 C4H8,1-butene   C4H8,cis2-buten C4H8,tr2-butene C4H8,isobutene  C4H8,cyclo-    
 (CH3COOH)2      C4H9,n-butyl    C4H9,i-butyl    C4H9,s-butyl    C4H9,t-butyl   
 C4H10,n-butane  C4H10,isobutane *C5             C5H6,1,3cyclo-  C5H8,cyclo-    
 C5H10,1-pentene C5H10,cyclo-    C5H11,pentyl    C5H11,t-pentyl  C5H12,n-pentane
 C5H12,i-pentane CH3C(CH3)2CH3   C6H2            C6H5,phenyl     C6H5O,phenoxy  
 C6H6            C6H5OH,phenol   C6H10,cyclo-    C6H12,1-hexene  C6H12,cyclo-   
 C6H13,n-hexyl   C6H14,n-hexane  C7H7,benzyl     C7H8            C7H8O,cresol-mx
 C7H14,1-heptene C7H15,n-heptyl  C7H16,n-heptane C7H16,2-methylh C8H8,styrene   
 C8H10,ethylbenz C8H16,1-octene  C8H17,n-octyl   C8H18,n-octane  C8H18,isooctane
 C9H19,n-nonyl   C10H8,naphthale C10H21,n-decyl  C12H9,o-bipheny C12H10,biphenyl
 HCO             HCCO            HO2             HCHO,formaldehy HCOOH          
 H2O2            (HCOOH)2        *O              *O2             O3             
 C(gr)           H2O(cr)         H2O(L)         

 NOTE. WEIGHT FRACTION OF FUEL IN TOTAL FUELS AND OF OXIDANT IN TOTAL OXIDANTS






 WARNING!!  ASSIGNED pip =   0.00000 IS NOT PERMITTED
 TO BE LESS THAN  Pinj/Pc =  1.00339. POINT OMITTED (ROCKET)





              THEORETICAL ROCKET PERFORMANCE ASSUMING EQUILIBRIUM

            COMPOSITION DURING EXPANSION FROM FINITE AREA COMBUSTOR

 Pin =    88.8 PSIA
 Ac/At = 11.2942      Pinj/Pinf =  1.001689
 CASE =                

             REACTANT                    WT FRACTION      ENERGY      TEMP
                                          (SEE NOTE)     KJ/KG-MOL      K  
 OXIDANT     O2                           0.9729618      8732.845    584.000
 OXIDANT     H2O                          0.0162229   -231904.341    584.000
 OXIDANT     CO2                          0.0108153   -381355.415    584.000
 FUEL        PMMA                         1.0000000   -442140.000    293.150

 O/F=    0.85804  %FUEL= 53.820125  R,EQ.RATIO= 1.922712  PHI,EQ.RATIO= 2.297092

                 INJECTOR  COMB END  THROAT
 Pinj/P            1.0000   1.0034   1.8028
 P, BAR            6.1200   6.0993   3.3948
 T, K             2357.69  2356.94  2106.60
 RHO, KG/CU M    6.3732-1 6.3538-1 3.9607-1
 H, KJ/KG        -2393.94 -2395.57 -2927.54
 U, KJ/KG        -3354.22 -3355.53 -3784.67
 G, KJ/KG        -30873.7 -30867.7 -28375.7
 S, KJ/(KG)(K)    12.0795  12.0802  12.0802

 M, (1/n)          20.414   20.414   20.435
 (dLV/dLP)t      -1.00076 -1.00076 -1.00025
 (dLV/dLT)p        1.0182   1.0182   1.0065
 Cp, KJ/(KG)(K)    2.2203   2.2200   2.0915
 GAMMAs            1.2337   1.2337   1.2451
 SON VEL,M/SEC     1088.4   1088.3   1033.1
 MACH NUMBER        0.000    0.052    1.000

 PERFORMANCE PARAMETERS

 Ae/At                      11.295   1.0000
 CSTAR, M/SEC               1493.2   1493.2
 CF                         0.0382   0.6918
 Ivac, M/SEC               16894.6   1862.8
 Isp, M/SEC                   57.0   1033.1


 MOLE FRACTIONS

 *CO              0.48770  0.48769  0.48245
 *CO2             0.06332  0.06334  0.06914
 *H               0.00265  0.00264  0.00090
 *H2              0.25478  0.25479  0.26151
 H2O              0.19116  0.19115  0.18591
 *OH              0.00038  0.00038  0.00009

  * THERMODYNAMIC PROPERTIES FITTED TO 20000.K

    PRODUCTS WHICH WERE CONSIDERED BUT WHOSE MOLE FRACTIONS
    WERE LESS THAN 5.000000E-06 FOR ALL ASSIGNED CONDITIONS

 *C              *CH             CH2             CH3             CH2OH          
 CH3O            CH4             CH3OH           CH3OOH          COOH           
 *C2             C2H             C2H2,acetylene  C2H2,vinylidene CH2CO,ketene   
 O(CH)2O         HO(CO)2OH       C2H3,vinyl      CH3CO,acetyl    C2H4           
 C2H4O,ethylen-o CH3CHO,ethanal  CH3COOH         OHCH2COOH       C2H5           
 C2H6            C2H5OH          CH3OCH3         CH3O2CH3        C2O            
 *C3             C3H3,1-propynl  C3H3,2-propynl  C3H4,allene     C3H4,propyne   
 C3H4,cyclo-     C3H5,allyl      C3H6,propylene  C3H6,cyclo-     C3H6O,propylox 
 C3H6O,acetone   C3H6O,propanal  C3H7,n-propyl   C3H7,i-propyl   C3H8           
 C3H8O,1propanol C3H8O,2propanol C3O2            *C4             C4H2,butadiyne 
 C4H4,1,3-cyclo- C4H6,butadiene  C4H6,1butyne    C4H6,2butyne    C4H6,cyclo-    
 C4H8,1-butene   C4H8,cis2-buten C4H8,tr2-butene C4H8,isobutene  C4H8,cyclo-    
 (CH3COOH)2      C4H9,n-butyl    C4H9,i-butyl    C4H9,s-butyl    C4H9,t-butyl   
 C4H10,n-butane  C4H10,isobutane *C5             C5H6,1,3cyclo-  C5H8,cyclo-    
 C5H10,1-pentene C5H10,cyclo-    C5H11,pentyl    C5H11,t-pentyl  C5H12,n-pentane
 C5H12,i-pentane CH3C(CH3)2CH3   C6H2            C6H5,phenyl     C6H5O,phenoxy  
 C6H6            C6H5OH,phenol   C6H10,cyclo-    C6H12,1-hexene  C6H12,cyclo-   
 C6H13,n-hexyl   C6H14,n-hexane  C7H7,benzyl     C7H8            C7H8O,cresol-mx
 C7H14,1-heptene C7H15,n-heptyl  C7H16,n-heptane C7H16,2-methylh C8H8,styrene   
 C8H10,ethylbenz C8H16,1-octene  C8H17,n-octyl   C8H18,n-octane  C8H18,isooctane
 C9H19,n-nonyl   C10H8,naphthale C10H21,n-decyl  C12H9,o-bipheny C12H10,biphenyl
 HCO             HCCO            HO2             HCHO,formaldehy HCOOH          
 H2O2            (HCOOH)2        *O              *O2             O3             
 C(gr)           H2O(cr)         H2O(L)         

 NOTE. WEIGHT FRACTION OF FUEL IN TOTAL FUELS AND OF OXIDANT IN TOTAL OXIDANTS






 WARNING!!  ASSIGNED pip =   0.00000 IS NOT PERMITTED
 TO BE LESS THAN  Pinj/Pc =  1.00339. POINT OMITTED (ROCKET)





              THEORETICAL ROCKET PERFORMANCE ASSUMING EQUILIBRIUM

            COMPOSITION DURING EXPANSION FROM FINITE AREA COMBUSTOR

 Pin =    88.8 PSIA
 Ac/At = 11.2942      Pinj/Pinf =  1.001689
 CASE =                

             REACTANT                    WT FRACTION      ENERGY      TEMP
                                          (SEE NOTE)     KJ/KG-MOL      K  
 OXIDANT     O2                           0.9729618      8732.845    584.000
 OXIDANT     H2O                          0.0162229   -231904.341    584.000
 OXIDANT     CO2                          0.0108153   -381355.415    584.000
 FUEL        PMMA                         1.0000000   -442140.000    293.150

 O/F=    0.85804  %FUEL= 53.820125  R,EQ.RATIO= 1.922712  PHI,EQ.RATIO= 2.297092

                 INJECTOR  COMB END  THROAT
 Pinj/P            1.0000   1.0034   1.8028
 P, BAR            6.1200   6.0993   3.3948
 T, K             2357.69  2356.94  2106.60
 RHO, KG/CU M    6.3732-1 6.3538-1 3.9607-1
 H, KJ/KG        -2393.94 -2395.57 -2927.54
 U, KJ/KG        -3354.22 -3355.53 -3784.67
 G, KJ/KG        -30873.7 -30867.7 -28375.7
 S, KJ/(KG)(K)    12.0795  12.0802  12.0802

 M, (1/n)          20.414   20.414   20.435
 (dLV/dLP)t      -1.00076 -1.00076 -1.00025
 (dLV/dLT)p        1.0182   1.0182   1.0065
 Cp, KJ/(KG)(K)    2.2203   2.2200   2.0915
 GAMMAs            1.2337   1.2337   1.2451
 SON VEL,M/SEC     1088.4   1088.3   1033.1
 MACH NUMBER        0.000    0.052    1.000

 PERFORMANCE PARAMETERS

 Ae/At                      11.295   1.0000
 CSTAR, M/SEC               1493.2   1493.2
 CF                         0.0382   0.6918
 Ivac, M/SEC               16894.6   1862.8
 Isp, M/SEC                   57.0   1033.1


 MOLE FRACTIONS

 *CO              0.48770  0.48769  0.48245
 *CO2             0.06332  0.06334  0.06914
 *H               0.00265  0.00264  0.00090
 *H2              0.25478  0.25479  0.26151
 H2O              0.19116  0.19115  0.18591
 *OH              0.00038  0.00038  0.00009

  * THERMODYNAMIC PROPERTIES FITTED TO 20000.K

    PRODUCTS WHICH WERE CONSIDERED BUT WHOSE MOLE FRACTIONS
    WERE LESS THAN 5.000000E-06 FOR ALL ASSIGNED CONDITIONS

 *C              *CH             CH2             CH3             CH2OH          
 CH3O            CH4             CH3OH           CH3OOH          COOH           
 *C2             C2H             C2H2,acetylene  C2H2,vinylidene CH2CO,ketene   
 O(CH)2O         HO(CO)2OH       C2H3,vinyl      CH3CO,acetyl    C2H4           
 C2H4O,ethylen-o CH3CHO,ethanal  CH3COOH         OHCH2COOH       C2H5           
 C2H6            C2H5OH          CH3OCH3         CH3O2CH3        C2O            
 *C3             C3H3,1-propynl  C3H3,2-propynl  C3H4,allene     C3H4,propyne   
 C3H4,cyclo-     C3H5,allyl      C3H6,propylene  C3H6,cyclo-     C3H6O,propylox 
 C3H6O,acetone   C3H6O,propanal  C3H7,n-propyl   C3H7,i-propyl   C3H8           
 C3H8O,1propanol C3H8O,2propanol C3O2            *C4             C4H2,butadiyne 
 C4H4,1,3-cyclo- C4H6,butadiene  C4H6,1butyne    C4H6,2butyne    C4H6,cyclo-    
 C4H8,1-butene   C4H8,cis2-buten C4H8,tr2-butene C4H8,isobutene  C4H8,cyclo-    
 (CH3COOH)2      C4H9,n-butyl    C4H9,i-butyl    C4H9,s-butyl    C4H9,t-butyl   
 C4H10,n-butane  C4H10,isobutane *C5             C5H6,1,3cyclo-  C5H8,cyclo-    
 C5H10,1-pentene C5H10,cyclo-    C5H11,pentyl    C5H11,t-pentyl  C5H12,n-pentane
 C5H12,i-pentane CH3C(CH3)2CH3   C6H2            C6H5,phenyl     C6H5O,phenoxy  
 C6H6            C6H5OH,phenol   C6H10,cyclo-    C6H12,1-hexene  C6H12,cyclo-   
 C6H13,n-hexyl   C6H14,n-hexane  C7H7,benzyl     C7H8            C7H8O,cresol-mx
 C7H14,1-heptene C7H15,n-heptyl  C7H16,n-heptane C7H16,2-methylh C8H8,styrene   
 C8H10,ethylbenz C8H16,1-octene  C8H17,n-octyl   C8H18,n-octane  C8H18,isooctane
 C9H19,n-nonyl   C10H8,naphthale C10H21,n-decyl  C12H9,o-bipheny C12H10,biphenyl
 HCO             HCCO            HO2             HCHO,formaldehy HCOOH          
 H2O2            (HCOOH)2        *O              *O2             O3             
 C(gr)           H2O(cr)         H2O(L)         

 NOTE. WEIGHT FRACTION OF FUEL IN TOTAL FUELS AND OF OXIDANT IN TOTAL OXIDANTS






 WARNING!!  ASSIGNED pip =   0.00000 IS NOT PERMITTED
 TO BE LESS THAN  Pinj/Pc =  1.00339. POINT OMITTED (ROCKET)





              THEORETICAL ROCKET PERFORMANCE ASSUMING EQUILIBRIUM

            COMPOSITION DURING EXPANSION FROM FINITE AREA COMBUSTOR

 Pin =    88.8 PSIA
 Ac/At = 11.2942      Pinj/Pinf =  1.001689
 CASE =                

             REACTANT                    WT FRACTION      ENERGY      TEMP
                                          (SEE NOTE)     KJ/KG-MOL      K  
 OXIDANT     O2                           0.9729618      8732.845    584.000
 OXIDANT     H2O                          0.0162229   -231904.341    584.000
 OXIDANT     CO2                          0.0108153   -381355.415    584.000
 FUEL        PMMA                         1.0000000   -442140.000    293.150

 O/F=    0.85804  %FUEL= 53.820125  R,EQ.RATIO= 1.922712  PHI,EQ.RATIO= 2.297092

                 INJECTOR  COMB END  THROAT
 Pinj/P            1.0000   1.0034   1.8028
 P, BAR            6.1200   6.0993   3.3948
 T, K             2357.69  2356.94  2106.60
 RHO, KG/CU M    6.3732-1 6.3538-1 3.9607-1
 H, KJ/KG        -2393.94 -2395.57 -2927.54
 U, KJ/KG        -3354.22 -3355.53 -3784.67
 G, KJ/KG        -30873.7 -30867.7 -28375.7
 S, KJ/(KG)(K)    12.0795  12.0802  12.0802

 M, (1/n)          20.414   20.414   20.435
 (dLV/dLP)t      -1.00076 -1.00076 -1.00025
 (dLV/dLT)p        1.0182   1.0182   1.0065
 Cp, KJ/(KG)(K)    2.2203   2.2200   2.0915
 GAMMAs            1.2337   1.2337   1.2451
 SON VEL,M/SEC     1088.4   1088.3   1033.1
 MACH NUMBER        0.000    0.052    1.000

 PERFORMANCE PARAMETERS

 Ae/At                      11.295   1.0000
 CSTAR, M/SEC               1493.2   1493.2
 CF                         0.0382   0.6918
 Ivac, M/SEC               16894.6   1862.8
 Isp, M/SEC                   57.0   1033.1


 MOLE FRACTIONS

 *CO              0.48770  0.48769  0.48245
 *CO2             0.06332  0.06334  0.06914
 *H               0.00265  0.00264  0.00090
 *H2              0.25478  0.25479  0.26151
 H2O              0.19116  0.19115  0.18591
 *OH              0.00038  0.00038  0.00009

  * THERMODYNAMIC PROPERTIES FITTED TO 20000.K

    PRODUCTS WHICH WERE CONSIDERED BUT WHOSE MOLE FRACTIONS
    WERE LESS THAN 5.000000E-06 FOR ALL ASSIGNED CONDITIONS

 *C              *CH             CH2             CH3             CH2OH          
 CH3O            CH4             CH3OH           CH3OOH          COOH           
 *C2             C2H             C2H2,acetylene  C2H2,vinylidene CH2CO,ketene   
 O(CH)2O         HO(CO)2OH       C2H3,vinyl      CH3CO,acetyl    C2H4           
 C2H4O,ethylen-o CH3CHO,ethanal  CH3COOH         OHCH2COOH       C2H5           
 C2H6            C2H5OH          CH3OCH3         CH3O2CH3        C2O            
 *C3             C3H3,1-propynl  C3H3,2-propynl  C3H4,allene     C3H4,propyne   
 C3H4,cyclo-     C3H5,allyl      C3H6,propylene  C3H6,cyclo-     C3H6O,propylox 
 C3H6O,acetone   C3H6O,propanal  C3H7,n-propyl   C3H7,i-propyl   C3H8           
 C3H8O,1propanol C3H8O,2propanol C3O2            *C4             C4H2,butadiyne 
 C4H4,1,3-cyclo- C4H6,butadiene  C4H6,1butyne    C4H6,2butyne    C4H6,cyclo-    
 C4H8,1-butene   C4H8,cis2-buten C4H8,tr2-butene C4H8,isobutene  C4H8,cyclo-    
 (CH3COOH)2      C4H9,n-butyl    C4H9,i-butyl    C4H9,s-butyl    C4H9,t-butyl   
 C4H10,n-butane  C4H10,isobutane *C5             C5H6,1,3cyclo-  C5H8,cyclo-    
 C5H10,1-pentene C5H10,cyclo-    C5H11,pentyl    C5H11,t-pentyl  C5H12,n-pentane
 C5H12,i-pentane CH3C(CH3)2CH3   C6H2            C6H5,phenyl     C6H5O,phenoxy  
 C6H6            C6H5OH,phenol   C6H10,cyclo-    C6H12,1-hexene  C6H12,cyclo-   
 C6H13,n-hexyl   C6H14,n-hexane  C7H7,benzyl     C7H8            C7H8O,cresol-mx
 C7H14,1-heptene C7H15,n-heptyl  C7H16,n-heptane C7H16,2-methylh C8H8,styrene   
 C8H10,ethylbenz C8H16,1-octene  C8H17,n-octyl   C8H18,n-octane  C8H18,isooctane
 C9H19,n-nonyl   C10H8,naphthale C10H21,n-decyl  C12H9,o-bipheny C12H10,biphenyl
 HCO             HCCO            HO2             HCHO,formaldehy HCOOH          
 H2O2            (HCOOH)2        *O              *O2             O3             
 C(gr)           H2O(cr)         H2O(L)         

 NOTE. WEIGHT FRACTION OF FUEL IN TOTAL FUELS AND OF OXIDANT IN TOTAL OXIDANTS






 WARNING!!  ASSIGNED pip =   0.00000 IS NOT PERMITTED
 TO BE LESS THAN  Pinj/Pc =  1.00339. POINT OMITTED (ROCKET)





              THEORETICAL ROCKET PERFORMANCE ASSUMING EQUILIBRIUM

            COMPOSITION DURING EXPANSION FROM FINITE AREA COMBUSTOR

 Pin =    88.8 PSIA
 Ac/At = 11.2942      Pinj/Pinf =  1.001689
 CASE =                

             REACTANT                    WT FRACTION      ENERGY      TEMP
                                          (SEE NOTE)     KJ/KG-MOL      K  
 OXIDANT     O2                           0.9729618      8732.845    584.000
 OXIDANT     H2O                          0.0162229   -231904.341    584.000
 OXIDANT     CO2                          0.0108153   -381355.415    584.000
 FUEL        PMMA                         1.0000000   -442140.000    293.150

 O/F=    0.85804  %FUEL= 53.820125  R,EQ.RATIO= 1.922712  PHI,EQ.RATIO= 2.297092

                 INJECTOR  COMB END  THROAT
 Pinj/P            1.0000   1.0034   1.8028
 P, BAR            6.1200   6.0993   3.3948
 T, K             2357.69  2356.94  2106.60
 RHO, KG/CU M    6.3732-1 6.3538-1 3.9607-1
 H, KJ/KG        -2393.94 -2395.57 -2927.54
 U, KJ/KG        -3354.22 -3355.53 -3784.67
 G, KJ/KG        -30873.7 -30867.7 -28375.7
 S, KJ/(KG)(K)    12.0795  12.0802  12.0802

 M, (1/n)          20.414   20.414   20.435
 (dLV/dLP)t      -1.00076 -1.00076 -1.00025
 (dLV/dLT)p        1.0182   1.0182   1.0065
 Cp, KJ/(KG)(K)    2.2203   2.2200   2.0915
 GAMMAs            1.2337   1.2337   1.2451
 SON VEL,M/SEC     1088.4   1088.3   1033.1
 MACH NUMBER        0.000    0.052    1.000

 PERFORMANCE PARAMETERS

 Ae/At                      11.295   1.0000
 CSTAR, M/SEC               1493.2   1493.2
 CF                         0.0382   0.6918
 Ivac, M/SEC               16894.6   1862.8
 Isp, M/SEC                   57.0   1033.1


 MOLE FRACTIONS

 *CO              0.48770  0.48769  0.48245
 *CO2             0.06332  0.06334  0.06914
 *H               0.00265  0.00264  0.00090
 *H2              0.25478  0.25479  0.26151
 H2O              0.19116  0.19115  0.18591
 *OH              0.00038  0.00038  0.00009

  * THERMODYNAMIC PROPERTIES FITTED TO 20000.K

    PRODUCTS WHICH WERE CONSIDERED BUT WHOSE MOLE FRACTIONS
    WERE LESS THAN 5.000000E-06 FOR ALL ASSIGNED CONDITIONS

 *C              *CH             CH2             CH3             CH2OH          
 CH3O            CH4             CH3OH           CH3OOH          COOH           
 *C2             C2H             C2H2,acetylene  C2H2,vinylidene CH2CO,ketene   
 O(CH)2O         HO(CO)2OH       C2H3,vinyl      CH3CO,acetyl    C2H4           
 C2H4O,ethylen-o CH3CHO,ethanal  CH3COOH         OHCH2COOH       C2H5           
 C2H6            C2H5OH          CH3OCH3         CH3O2CH3        C2O            
 *C3             C3H3,1-propynl  C3H3,2-propynl  C3H4,allene     C3H4,propyne   
 C3H4,cyclo-     C3H5,allyl      C3H6,propylene  C3H6,cyclo-     C3H6O,propylox 
 C3H6O,acetone   C3H6O,propanal  C3H7,n-propyl   C3H7,i-propyl   C3H8           
 C3H8O,1propanol C3H8O,2propanol C3O2            *C4             C4H2,butadiyne 
 C4H4,1,3-cyclo- C4H6,butadiene  C4H6,1butyne    C4H6,2butyne    C4H6,cyclo-    
 C4H8,1-butene   C4H8,cis2-buten C4H8,tr2-butene C4H8,isobutene  C4H8,cyclo-    
 (CH3COOH)2      C4H9,n-butyl    C4H9,i-butyl    C4H9,s-butyl    C4H9,t-butyl   
 C4H10,n-butane  C4H10,isobutane *C5             C5H6,1,3cyclo-  C5H8,cyclo-    
 C5H10,1-pentene C5H10,cyclo-    C5H11,pentyl    C5H11,t-pentyl  C5H12,n-pentane
 C5H12,i-pentane CH3C(CH3)2CH3   C6H2            C6H5,phenyl     C6H5O,phenoxy  
 C6H6            C6H5OH,phenol   C6H10,cyclo-    C6H12,1-hexene  C6H12,cyclo-   
 C6H13,n-hexyl   C6H14,n-hexane  C7H7,benzyl     C7H8            C7H8O,cresol-mx
 C7H14,1-heptene C7H15,n-heptyl  C7H16,n-heptane C7H16,2-methylh C8H8,styrene   
 C8H10,ethylbenz C8H16,1-octene  C8H17,n-octyl   C8H18,n-octane  C8H18,isooctane
 C9H19,n-nonyl   C10H8,naphthale C10H21,n-decyl  C12H9,o-bipheny C12H10,biphenyl
 HCO             HCCO            HO2             HCHO,formaldehy HCOOH          
 H2O2            (HCOOH)2        *O              *O2             O3             
 C(gr)           H2O(cr)         H2O(L)         

 NOTE. WEIGHT FRACTION OF FUEL IN TOTAL FUELS AND OF OXIDANT IN TOTAL OXIDANTS






 WARNING!!  ASSIGNED pip =   0.00000 IS NOT PERMITTED
 TO BE LESS THAN  Pinj/Pc =  1.00339. POINT OMITTED (ROCKET)





              THEORETICAL ROCKET PERFORMANCE ASSUMING EQUILIBRIUM

            COMPOSITION DURING EXPANSION FROM FINITE AREA COMBUSTOR

 Pin =    88.8 PSIA
 Ac/At = 11.2942      Pinj/Pinf =  1.001689
 CASE =                

             REACTANT                    WT FRACTION      ENERGY      TEMP
                                          (SEE NOTE)     KJ/KG-MOL      K  
 OXIDANT     O2                           0.9729618      8732.845    584.000
 OXIDANT     H2O                          0.0162229   -231904.341    584.000
 OXIDANT     CO2                          0.0108153   -381355.415    584.000
 FUEL        PMMA                         1.0000000   -442140.000    293.150

 O/F=    0.85804  %FUEL= 53.820125  R,EQ.RATIO= 1.922712  PHI,EQ.RATIO= 2.297092

                 INJECTOR  COMB END  THROAT
 Pinj/P            1.0000   1.0034   1.8028
 P, BAR            6.1200   6.0993   3.3948
 T, K             2357.69  2356.94  2106.60
 RHO, KG/CU M    6.3732-1 6.3538-1 3.9607-1
 H, KJ/KG        -2393.94 -2395.57 -2927.54
 U, KJ/KG        -3354.22 -3355.53 -3784.67
 G, KJ/KG        -30873.7 -30867.7 -28375.7
 S, KJ/(KG)(K)    12.0795  12.0802  12.0802

 M, (1/n)          20.414   20.414   20.435
 (dLV/dLP)t      -1.00076 -1.00076 -1.00025
 (dLV/dLT)p        1.0182   1.0182   1.0065
 Cp, KJ/(KG)(K)    2.2203   2.2200   2.0915
 GAMMAs            1.2337   1.2337   1.2451
 SON VEL,M/SEC     1088.4   1088.3   1033.1
 MACH NUMBER        0.000    0.052    1.000

 PERFORMANCE PARAMETERS

 Ae/At                      11.295   1.0000
 CSTAR, M/SEC               1493.2   1493.2
 CF                         0.0382   0.6918
 Ivac, M/SEC               16894.6   1862.8
 Isp, M/SEC                   57.0   1033.1


 MOLE FRACTIONS

 *CO              0.48770  0.48769  0.48245
 *CO2             0.06332  0.06334  0.06914
 *H               0.00265  0.00264  0.00090
 *H2              0.25478  0.25479  0.26151
 H2O              0.19116  0.19115  0.18591
 *OH              0.00038  0.00038  0.00009

  * THERMODYNAMIC PROPERTIES FITTED TO 20000.K

    PRODUCTS WHICH WERE CONSIDERED BUT WHOSE MOLE FRACTIONS
    WERE LESS THAN 5.000000E-06 FOR ALL ASSIGNED CONDITIONS

 *C              *CH             CH2             CH3             CH2OH          
 CH3O            CH4             CH3OH           CH3OOH          COOH           
 *C2             C2H             C2H2,acetylene  C2H2,vinylidene CH2CO,ketene   
 O(CH)2O         HO(CO)2OH       C2H3,vinyl      CH3CO,acetyl    C2H4           
 C2H4O,ethylen-o CH3CHO,ethanal  CH3COOH         OHCH2COOH       C2H5           
 C2H6            C2H5OH          CH3OCH3         CH3O2CH3        C2O            
 *C3             C3H3,1-propynl  C3H3,2-propynl  C3H4,allene     C3H4,propyne   
 C3H4,cyclo-     C3H5,allyl      C3H6,propylene  C3H6,cyclo-     C3H6O,propylox 
 C3H6O,acetone   C3H6O,propanal  C3H7,n-propyl   C3H7,i-propyl   C3H8           
 C3H8O,1propanol C3H8O,2propanol C3O2            *C4             C4H2,butadiyne 
 C4H4,1,3-cyclo- C4H6,butadiene  C4H6,1butyne    C4H6,2butyne    C4H6,cyclo-    
 C4H8,1-butene   C4H8,cis2-buten C4H8,tr2-butene C4H8,isobutene  C4H8,cyclo-    
 (CH3COOH)2      C4H9,n-butyl    C4H9,i-butyl    C4H9,s-butyl    C4H9,t-butyl   
 C4H10,n-butane  C4H10,isobutane *C5             C5H6,1,3cyclo-  C5H8,cyclo-    
 C5H10,1-pentene C5H10,cyclo-    C5H11,pentyl    C5H11,t-pentyl  C5H12,n-pentane
 C5H12,i-pentane CH3C(CH3)2CH3   C6H2            C6H5,phenyl     C6H5O,phenoxy  
 C6H6            C6H5OH,phenol   C6H10,cyclo-    C6H12,1-hexene  C6H12,cyclo-   
 C6H13,n-hexyl   C6H14,n-hexane  C7H7,benzyl     C7H8            C7H8O,cresol-mx
 C7H14,1-heptene C7H15,n-heptyl  C7H16,n-heptane C7H16,2-methylh C8H8,styrene   
 C8H10,ethylbenz C8H16,1-octene  C8H17,n-octyl   C8H18,n-octane  C8H18,isooctane
 C9H19,n-nonyl   C10H8,naphthale C10H21,n-decyl  C12H9,o-bipheny C12H10,biphenyl
 HCO             HCCO            HO2             HCHO,formaldehy HCOOH          
 H2O2            (HCOOH)2        *O              *O2             O3             
 C(gr)           H2O(cr)         H2O(L)         

 NOTE. WEIGHT FRACTION OF FUEL IN TOTAL FUELS AND OF OXIDANT IN TOTAL OXIDANTS






 WARNING!!  ASSIGNED pip =   0.00000 IS NOT PERMITTED
 TO BE LESS THAN  Pinj/Pc =  1.00339. POINT OMITTED (ROCKET)





              THEORETICAL ROCKET PERFORMANCE ASSUMING EQUILIBRIUM

            COMPOSITION DURING EXPANSION FROM FINITE AREA COMBUSTOR

 Pin =    88.8 PSIA
 Ac/At = 11.2942      Pinj/Pinf =  1.001689
 CASE =                

             REACTANT                    WT FRACTION      ENERGY      TEMP
                                          (SEE NOTE)     KJ/KG-MOL      K  
 OXIDANT     O2                           0.9729618      8732.845    584.000
 OXIDANT     H2O                          0.0162229   -231904.341    584.000
 OXIDANT     CO2                          0.0108153   -381355.415    584.000
 FUEL        PMMA                         1.0000000   -442140.000    293.150

 O/F=    0.85804  %FUEL= 53.820125  R,EQ.RATIO= 1.922712  PHI,EQ.RATIO= 2.297092

                 INJECTOR  COMB END  THROAT
 Pinj/P            1.0000   1.0034   1.8028
 P, BAR            6.1200   6.0993   3.3948
 T, K             2357.69  2356.94  2106.60
 RHO, KG/CU M    6.3732-1 6.3538-1 3.9607-1
 H, KJ/KG        -2393.94 -2395.57 -2927.54
 U, KJ/KG        -3354.22 -3355.53 -3784.67
 G, KJ/KG        -30873.7 -30867.7 -28375.7
 S, KJ/(KG)(K)    12.0795  12.0802  12.0802

 M, (1/n)          20.414   20.414   20.435
 (dLV/dLP)t      -1.00076 -1.00076 -1.00025
 (dLV/dLT)p        1.0182   1.0182   1.0065
 Cp, KJ/(KG)(K)    2.2203   2.2200   2.0915
 GAMMAs            1.2337   1.2337   1.2451
 SON VEL,M/SEC     1088.4   1088.3   1033.1
 MACH NUMBER        0.000    0.052    1.000

 PERFORMANCE PARAMETERS

 Ae/At                      11.295   1.0000
 CSTAR, M/SEC               1493.2   1493.2
 CF                         0.0382   0.6918
 Ivac, M/SEC               16894.6   1862.8
 Isp, M/SEC                   57.0   1033.1


 MOLE FRACTIONS

 *CO              0.48770  0.48769  0.48245
 *CO2             0.06332  0.06334  0.06914
 *H               0.00265  0.00264  0.00090
 *H2              0.25478  0.25479  0.26151
 H2O              0.19116  0.19115  0.18591
 *OH              0.00038  0.00038  0.00009

  * THERMODYNAMIC PROPERTIES FITTED TO 20000.K

    PRODUCTS WHICH WERE CONSIDERED BUT WHOSE MOLE FRACTIONS
    WERE LESS THAN 5.000000E-06 FOR ALL ASSIGNED CONDITIONS

 *C              *CH             CH2             CH3             CH2OH          
 CH3O            CH4             CH3OH           CH3OOH          COOH           
 *C2             C2H             C2H2,acetylene  C2H2,vinylidene CH2CO,ketene   
 O(CH)2O         HO(CO)2OH       C2H3,vinyl      CH3CO,acetyl    C2H4           
 C2H4O,ethylen-o CH3CHO,ethanal  CH3COOH         OHCH2COOH       C2H5           
 C2H6            C2H5OH          CH3OCH3         CH3O2CH3        C2O            
 *C3             C3H3,1-propynl  C3H3,2-propynl  C3H4,allene     C3H4,propyne   
 C3H4,cyclo-     C3H5,allyl      C3H6,propylene  C3H6,cyclo-     C3H6O,propylox 
 C3H6O,acetone   C3H6O,propanal  C3H7,n-propyl   C3H7,i-propyl   C3H8           
 C3H8O,1propanol C3H8O,2propanol C3O2            *C4             C4H2,butadiyne 
 C4H4,1,3-cyclo- C4H6,butadiene  C4H6,1butyne    C4H6,2butyne    C4H6,cyclo-    
 C4H8,1-butene   C4H8,cis2-buten C4H8,tr2-butene C4H8,isobutene  C4H8,cyclo-    
 (CH3COOH)2      C4H9,n-butyl    C4H9,i-butyl    C4H9,s-butyl    C4H9,t-butyl   
 C4H10,n-butane  C4H10,isobutane *C5             C5H6,1,3cyclo-  C5H8,cyclo-    
 C5H10,1-pentene C5H10,cyclo-    C5H11,pentyl    C5H11,t-pentyl  C5H12,n-pentane
 C5H12,i-pentane CH3C(CH3)2CH3   C6H2            C6H5,phenyl     C6H5O,phenoxy  
 C6H6            C6H5OH,phenol   C6H10,cyclo-    C6H12,1-hexene  C6H12,cyclo-   
 C6H13,n-hexyl   C6H14,n-hexane  C7H7,benzyl     C7H8            C7H8O,cresol-mx
 C7H14,1-heptene C7H15,n-heptyl  C7H16,n-heptane C7H16,2-methylh C8H8,styrene   
 C8H10,ethylbenz C8H16,1-octene  C8H17,n-octyl   C8H18,n-octane  C8H18,isooctane
 C9H19,n-nonyl   C10H8,naphthale C10H21,n-decyl  C12H9,o-bipheny C12H10,biphenyl
 HCO             HCCO            HO2             HCHO,formaldehy HCOOH          
 H2O2            (HCOOH)2        *O              *O2             O3             
 C(gr)           H2O(cr)         H2O(L)         

 NOTE. WEIGHT FRACTION OF FUEL IN TOTAL FUELS AND OF OXIDANT IN TOTAL OXIDANTS






 WARNING!!  ASSIGNED pip =   0.00000 IS NOT PERMITTED
 TO BE LESS THAN  Pinj/Pc =  1.00339. POINT OMITTED (ROCKET)





              THEORETICAL ROCKET PERFORMANCE ASSUMING EQUILIBRIUM

            COMPOSITION DURING EXPANSION FROM FINITE AREA COMBUSTOR

 Pin =    88.8 PSIA
 Ac/At = 11.2942      Pinj/Pinf =  1.001689
 CASE =                

             REACTANT                    WT FRACTION      ENERGY      TEMP
                                          (SEE NOTE)     KJ/KG-MOL      K  
 OXIDANT     O2                           0.9729618      8732.845    584.000
 OXIDANT     H2O                          0.0162229   -231904.341    584.000
 OXIDANT     CO2                          0.0108153   -381355.415    584.000
 FUEL        PMMA                         1.0000000   -442140.000    293.150

 O/F=    0.85804  %FUEL= 53.820125  R,EQ.RATIO= 1.922712  PHI,EQ.RATIO= 2.297092

                 INJECTOR  COMB END  THROAT
 Pinj/P            1.0000   1.0034   1.8028
 P, BAR            6.1200   6.0993   3.3948
 T, K             2357.69  2356.94  2106.60
 RHO, KG/CU M    6.3732-1 6.3538-1 3.9607-1
 H, KJ/KG        -2393.94 -2395.57 -2927.54
 U, KJ/KG        -3354.22 -3355.53 -3784.67
 G, KJ/KG        -30873.7 -30867.7 -28375.7
 S, KJ/(KG)(K)    12.0795  12.0802  12.0802

 M, (1/n)          20.414   20.414   20.435
 (dLV/dLP)t      -1.00076 -1.00076 -1.00025
 (dLV/dLT)p        1.0182   1.0182   1.0065
 Cp, KJ/(KG)(K)    2.2203   2.2200   2.0915
 GAMMAs            1.2337   1.2337   1.2451
 SON VEL,M/SEC     1088.4   1088.3   1033.1
 MACH NUMBER        0.000    0.052    1.000

 PERFORMANCE PARAMETERS

 Ae/At                      11.295   1.0000
 CSTAR, M/SEC               1493.2   1493.2
 CF                         0.0382   0.6918
 Ivac, M/SEC               16894.6   1862.8
 Isp, M/SEC                   57.0   1033.1


 MOLE FRACTIONS

 *CO              0.48770  0.48769  0.48245
 *CO2             0.06332  0.06334  0.06914
 *H               0.00265  0.00264  0.00090
 *H2              0.25478  0.25479  0.26151
 H2O              0.19116  0.19115  0.18591
 *OH              0.00038  0.00038  0.00009

  * THERMODYNAMIC PROPERTIES FITTED TO 20000.K

    PRODUCTS WHICH WERE CONSIDERED BUT WHOSE MOLE FRACTIONS
    WERE LESS THAN 5.000000E-06 FOR ALL ASSIGNED CONDITIONS

 *C              *CH             CH2             CH3             CH2OH          
 CH3O            CH4             CH3OH           CH3OOH          COOH           
 *C2             C2H             C2H2,acetylene  C2H2,vinylidene CH2CO,ketene   
 O(CH)2O         HO(CO)2OH       C2H3,vinyl      CH3CO,acetyl    C2H4           
 C2H4O,ethylen-o CH3CHO,ethanal  CH3COOH         OHCH2COOH       C2H5           
 C2H6            C2H5OH          CH3OCH3         CH3O2CH3        C2O            
 *C3             C3H3,1-propynl  C3H3,2-propynl  C3H4,allene     C3H4,propyne   
 C3H4,cyclo-     C3H5,allyl      C3H6,propylene  C3H6,cyclo-     C3H6O,propylox 
 C3H6O,acetone   C3H6O,propanal  C3H7,n-propyl   C3H7,i-propyl   C3H8           
 C3H8O,1propanol C3H8O,2propanol C3O2            *C4             C4H2,butadiyne 
 C4H4,1,3-cyclo- C4H6,butadiene  C4H6,1butyne    C4H6,2butyne    C4H6,cyclo-    
 C4H8,1-butene   C4H8,cis2-buten C4H8,tr2-butene C4H8,isobutene  C4H8,cyclo-    
 (CH3COOH)2      C4H9,n-butyl    C4H9,i-butyl    C4H9,s-butyl    C4H9,t-butyl   
 C4H10,n-butane  C4H10,isobutane *C5             C5H6,1,3cyclo-  C5H8,cyclo-    
 C5H10,1-pentene C5H10,cyclo-    C5H11,pentyl    C5H11,t-pentyl  C5H12,n-pentane
 C5H12,i-pentane CH3C(CH3)2CH3   C6H2            C6H5,phenyl     C6H5O,phenoxy  
 C6H6            C6H5OH,phenol   C6H10,cyclo-    C6H12,1-hexene  C6H12,cyclo-   
 C6H13,n-hexyl   C6H14,n-hexane  C7H7,benzyl     C7H8            C7H8O,cresol-mx
 C7H14,1-heptene C7H15,n-heptyl  C7H16,n-heptane C7H16,2-methylh C8H8,styrene   
 C8H10,ethylbenz C8H16,1-octene  C8H17,n-octyl   C8H18,n-octane  C8H18,isooctane
 C9H19,n-nonyl   C10H8,naphthale C10H21,n-decyl  C12H9,o-bipheny C12H10,biphenyl
 HCO             HCCO            HO2             HCHO,formaldehy HCOOH          
 H2O2            (HCOOH)2        *O              *O2             O3             
 C(gr)           H2O(cr)         H2O(L)         

 NOTE. WEIGHT FRACTION OF FUEL IN TOTAL FUELS AND OF OXIDANT IN TOTAL OXIDANTS






 WARNING!!  ASSIGNED pip =   0.00000 IS NOT PERMITTED
 TO BE LESS THAN  Pinj/Pc =  1.00339. POINT OMITTED (ROCKET)





              THEORETICAL ROCKET PERFORMANCE ASSUMING EQUILIBRIUM

            COMPOSITION DURING EXPANSION FROM FINITE AREA COMBUSTOR

 Pin =    88.8 PSIA
 Ac/At = 11.2942      Pinj/Pinf =  1.001689
 CASE =                

             REACTANT                    WT FRACTION      ENERGY      TEMP
                                          (SEE NOTE)     KJ/KG-MOL      K  
 OXIDANT     O2                           0.9729618      8732.845    584.000
 OXIDANT     H2O                          0.0162229   -231904.341    584.000
 OXIDANT     CO2                          0.0108153   -381355.415    584.000
 FUEL        PMMA                         1.0000000   -442140.000    293.150

 O/F=    0.85804  %FUEL= 53.820125  R,EQ.RATIO= 1.922712  PHI,EQ.RATIO= 2.297092

                 INJECTOR  COMB END  THROAT
 Pinj/P            1.0000   1.0034   1.8028
 P, BAR            6.1200   6.0993   3.3948
 T, K             2357.69  2356.94  2106.60
 RHO, KG/CU M    6.3732-1 6.3538-1 3.9607-1
 H, KJ/KG        -2393.94 -2395.57 -2927.54
 U, KJ/KG        -3354.22 -3355.53 -3784.67
 G, KJ/KG        -30873.7 -30867.7 -28375.7
 S, KJ/(KG)(K)    12.0795  12.0802  12.0802

 M, (1/n)          20.414   20.414   20.435
 (dLV/dLP)t      -1.00076 -1.00076 -1.00025
 (dLV/dLT)p        1.0182   1.0182   1.0065
 Cp, KJ/(KG)(K)    2.2203   2.2200   2.0915
 GAMMAs            1.2337   1.2337   1.2451
 SON VEL,M/SEC     1088.4   1088.3   1033.1
 MACH NUMBER        0.000    0.052    1.000

 PERFORMANCE PARAMETERS

 Ae/At                      11.295   1.0000
 CSTAR, M/SEC               1493.2   1493.2
 CF                         0.0382   0.6918
 Ivac, M/SEC               16894.6   1862.8
 Isp, M/SEC                   57.0   1033.1


 MOLE FRACTIONS

 *CO              0.48770  0.48769  0.48245
 *CO2             0.06332  0.06334  0.06914
 *H               0.00265  0.00264  0.00090
 *H2              0.25478  0.25479  0.26151
 H2O              0.19116  0.19115  0.18591
 *OH              0.00038  0.00038  0.00009

  * THERMODYNAMIC PROPERTIES FITTED TO 20000.K

    PRODUCTS WHICH WERE CONSIDERED BUT WHOSE MOLE FRACTIONS
    WERE LESS THAN 5.000000E-06 FOR ALL ASSIGNED CONDITIONS

 *C              *CH             CH2             CH3             CH2OH          
 CH3O            CH4             CH3OH           CH3OOH          COOH           
 *C2             C2H             C2H2,acetylene  C2H2,vinylidene CH2CO,ketene   
 O(CH)2O         HO(CO)2OH       C2H3,vinyl      CH3CO,acetyl    C2H4           
 C2H4O,ethylen-o CH3CHO,ethanal  CH3COOH         OHCH2COOH       C2H5           
 C2H6            C2H5OH          CH3OCH3         CH3O2CH3        C2O            
 *C3             C3H3,1-propynl  C3H3,2-propynl  C3H4,allene     C3H4,propyne   
 C3H4,cyclo-     C3H5,allyl      C3H6,propylene  C3H6,cyclo-     C3H6O,propylox 
 C3H6O,acetone   C3H6O,propanal  C3H7,n-propyl   C3H7,i-propyl   C3H8           
 C3H8O,1propanol C3H8O,2propanol C3O2            *C4             C4H2,butadiyne 
 C4H4,1,3-cyclo- C4H6,butadiene  C4H6,1butyne    C4H6,2butyne    C4H6,cyclo-    
 C4H8,1-butene   C4H8,cis2-buten C4H8,tr2-butene C4H8,isobutene  C4H8,cyclo-    
 (CH3COOH)2      C4H9,n-butyl    C4H9,i-butyl    C4H9,s-butyl    C4H9,t-butyl   
 C4H10,n-butane  C4H10,isobutane *C5             C5H6,1,3cyclo-  C5H8,cyclo-    
 C5H10,1-pentene C5H10,cyclo-    C5H11,pentyl    C5H11,t-pentyl  C5H12,n-pentane
 C5H12,i-pentane CH3C(CH3)2CH3   C6H2            C6H5,phenyl     C6H5O,phenoxy  
 C6H6            C6H5OH,phenol   C6H10,cyclo-    C6H12,1-hexene  C6H12,cyclo-   
 C6H13,n-hexyl   C6H14,n-hexane  C7H7,benzyl     C7H8            C7H8O,cresol-mx
 C7H14,1-heptene C7H15,n-heptyl  C7H16,n-heptane C7H16,2-methylh C8H8,styrene   
 C8H10,ethylbenz C8H16,1-octene  C8H17,n-octyl   C8H18,n-octane  C8H18,isooctane
 C9H19,n-nonyl   C10H8,naphthale C10H21,n-decyl  C12H9,o-bipheny C12H10,biphenyl
 HCO             HCCO            HO2             HCHO,formaldehy HCOOH          
 H2O2            (HCOOH)2        *O              *O2             O3             
 C(gr)           H2O(cr)         H2O(L)         

 NOTE. WEIGHT FRACTION OF FUEL IN TOTAL FUELS AND OF OXIDANT IN TOTAL OXIDANTS






 WARNING!!  ASSIGNED pip =   0.00000 IS NOT PERMITTED
 TO BE LESS THAN  Pinj/Pc =  1.00339. POINT OMITTED (ROCKET)





              THEORETICAL ROCKET PERFORMANCE ASSUMING EQUILIBRIUM

            COMPOSITION DURING EXPANSION FROM FINITE AREA COMBUSTOR

 Pin =    88.8 PSIA
 Ac/At = 11.2942      Pinj/Pinf =  1.001689
 CASE =                

             REACTANT                    WT FRACTION      ENERGY      TEMP
                                          (SEE NOTE)     KJ/KG-MOL      K  
 OXIDANT     O2                           0.9729618      8732.845    584.000
 OXIDANT     H2O                          0.0162229   -231904.341    584.000
 OXIDANT     CO2                          0.0108153   -381355.415    584.000
 FUEL        PMMA                         1.0000000   -442140.000    293.150

 O/F=    0.85804  %FUEL= 53.820125  R,EQ.RATIO= 1.922712  PHI,EQ.RATIO= 2.297092

                 INJECTOR  COMB END  THROAT
 Pinj/P            1.0000   1.0034   1.8028
 P, BAR            6.1200   6.0993   3.3948
 T, K             2357.69  2356.94  2106.60
 RHO, KG/CU M    6.3732-1 6.3538-1 3.9607-1
 H, KJ/KG        -2393.94 -2395.57 -2927.54
 U, KJ/KG        -3354.22 -3355.53 -3784.67
 G, KJ/KG        -30873.7 -30867.7 -28375.7
 S, KJ/(KG)(K)    12.0795  12.0802  12.0802

 M, (1/n)          20.414   20.414   20.435
 (dLV/dLP)t      -1.00076 -1.00076 -1.00025
 (dLV/dLT)p        1.0182   1.0182   1.0065
 Cp, KJ/(KG)(K)    2.2203   2.2200   2.0915
 GAMMAs            1.2337   1.2337   1.2451
 SON VEL,M/SEC     1088.4   1088.3   1033.1
 MACH NUMBER        0.000    0.052    1.000

 PERFORMANCE PARAMETERS

 Ae/At                      11.295   1.0000
 CSTAR, M/SEC               1493.2   1493.2
 CF                         0.0382   0.6918
 Ivac, M/SEC               16894.6   1862.8
 Isp, M/SEC                   57.0   1033.1


 MOLE FRACTIONS

 *CO              0.48770  0.48769  0.48245
 *CO2             0.06332  0.06334  0.06914
 *H               0.00265  0.00264  0.00090
 *H2              0.25478  0.25479  0.26151
 H2O              0.19116  0.19115  0.18591
 *OH              0.00038  0.00038  0.00009

  * THERMODYNAMIC PROPERTIES FITTED TO 20000.K

    PRODUCTS WHICH WERE CONSIDERED BUT WHOSE MOLE FRACTIONS
    WERE LESS THAN 5.000000E-06 FOR ALL ASSIGNED CONDITIONS

 *C              *CH             CH2             CH3             CH2OH          
 CH3O            CH4             CH3OH           CH3OOH          COOH           
 *C2             C2H             C2H2,acetylene  C2H2,vinylidene CH2CO,ketene   
 O(CH)2O         HO(CO)2OH       C2H3,vinyl      CH3CO,acetyl    C2H4           
 C2H4O,ethylen-o CH3CHO,ethanal  CH3COOH         OHCH2COOH       C2H5           
 C2H6            C2H5OH          CH3OCH3         CH3O2CH3        C2O            
 *C3             C3H3,1-propynl  C3H3,2-propynl  C3H4,allene     C3H4,propyne   
 C3H4,cyclo-     C3H5,allyl      C3H6,propylene  C3H6,cyclo-     C3H6O,propylox 
 C3H6O,acetone   C3H6O,propanal  C3H7,n-propyl   C3H7,i-propyl   C3H8           
 C3H8O,1propanol C3H8O,2propanol C3O2            *C4             C4H2,butadiyne 
 C4H4,1,3-cyclo- C4H6,butadiene  C4H6,1butyne    C4H6,2butyne    C4H6,cyclo-    
 C4H8,1-butene   C4H8,cis2-buten C4H8,tr2-butene C4H8,isobutene  C4H8,cyclo-    
 (CH3COOH)2      C4H9,n-butyl    C4H9,i-butyl    C4H9,s-butyl    C4H9,t-butyl   
 C4H10,n-butane  C4H10,isobutane *C5             C5H6,1,3cyclo-  C5H8,cyclo-    
 C5H10,1-pentene C5H10,cyclo-    C5H11,pentyl    C5H11,t-pentyl  C5H12,n-pentane
 C5H12,i-pentane CH3C(CH3)2CH3   C6H2            C6H5,phenyl     C6H5O,phenoxy  
 C6H6            C6H5OH,phenol   C6H10,cyclo-    C6H12,1-hexene  C6H12,cyclo-   
 C6H13,n-hexyl   C6H14,n-hexane  C7H7,benzyl     C7H8            C7H8O,cresol-mx
 C7H14,1-heptene C7H15,n-heptyl  C7H16,n-heptane C7H16,2-methylh C8H8,styrene   
 C8H10,ethylbenz C8H16,1-octene  C8H17,n-octyl   C8H18,n-octane  C8H18,isooctane
 C9H19,n-nonyl   C10H8,naphthale C10H21,n-decyl  C12H9,o-bipheny C12H10,biphenyl
 HCO             HCCO            HO2             HCHO,formaldehy HCOOH          
 H2O2            (HCOOH)2        *O              *O2             O3             
 C(gr)           H2O(cr)         H2O(L)         

 NOTE. WEIGHT FRACTION OF FUEL IN TOTAL FUELS AND OF OXIDANT IN TOTAL OXIDANTS






 WARNING!!  ASSIGNED pip =   0.00000 IS NOT PERMITTED
 TO BE LESS THAN  Pinj/Pc =  1.00339. POINT OMITTED (ROCKET)





              THEORETICAL ROCKET PERFORMANCE ASSUMING EQUILIBRIUM

            COMPOSITION DURING EXPANSION FROM FINITE AREA COMBUSTOR

 Pin =    88.8 PSIA
 Ac/At = 11.2942      Pinj/Pinf =  1.001689
 CASE =                

             REACTANT                    WT FRACTION      ENERGY      TEMP
                                          (SEE NOTE)     KJ/KG-MOL      K  
 OXIDANT     O2                           0.9729618      8732.845    584.000
 OXIDANT     H2O                          0.0162229   -231904.341    584.000
 OXIDANT     CO2                          0.0108153   -381355.415    584.000
 FUEL        PMMA                         1.0000000   -442140.000    293.150

 O/F=    0.85804  %FUEL= 53.820125  R,EQ.RATIO= 1.922712  PHI,EQ.RATIO= 2.297092

                 INJECTOR  COMB END  THROAT
 Pinj/P            1.0000   1.0034   1.8028
 P, BAR            6.1200   6.0993   3.3948
 T, K             2357.69  2356.94  2106.60
 RHO, KG/CU M    6.3732-1 6.3538-1 3.9607-1
 H, KJ/KG        -2393.94 -2395.57 -2927.54
 U, KJ/KG        -3354.22 -3355.53 -3784.67
 G, KJ/KG        -30873.7 -30867.7 -28375.7
 S, KJ/(KG)(K)    12.0795  12.0802  12.0802

 M, (1/n)          20.414   20.414   20.435
 (dLV/dLP)t      -1.00076 -1.00076 -1.00025
 (dLV/dLT)p        1.0182   1.0182   1.0065
 Cp, KJ/(KG)(K)    2.2203   2.2200   2.0915
 GAMMAs            1.2337   1.2337   1.2451
 SON VEL,M/SEC     1088.4   1088.3   1033.1
 MACH NUMBER        0.000    0.052    1.000

 PERFORMANCE PARAMETERS

 Ae/At                      11.295   1.0000
 CSTAR, M/SEC               1493.2   1493.2
 CF                         0.0382   0.6918
 Ivac, M/SEC               16894.6   1862.8
 Isp, M/SEC                   57.0   1033.1


 MOLE FRACTIONS

 *CO              0.48770  0.48769  0.48245
 *CO2             0.06332  0.06334  0.06914
 *H               0.00265  0.00264  0.00090
 *H2              0.25478  0.25479  0.26151
 H2O              0.19116  0.19115  0.18591
 *OH              0.00038  0.00038  0.00009

  * THERMODYNAMIC PROPERTIES FITTED TO 20000.K

    PRODUCTS WHICH WERE CONSIDERED BUT WHOSE MOLE FRACTIONS
    WERE LESS THAN 5.000000E-06 FOR ALL ASSIGNED CONDITIONS

 *C              *CH             CH2             CH3             CH2OH          
 CH3O            CH4             CH3OH           CH3OOH          COOH           
 *C2             C2H             C2H2,acetylene  C2H2,vinylidene CH2CO,ketene   
 O(CH)2O         HO(CO)2OH       C2H3,vinyl      CH3CO,acetyl    C2H4           
 C2H4O,ethylen-o CH3CHO,ethanal  CH3COOH         OHCH2COOH       C2H5           
 C2H6            C2H5OH          CH3OCH3         CH3O2CH3        C2O            
 *C3             C3H3,1-propynl  C3H3,2-propynl  C3H4,allene     C3H4,propyne   
 C3H4,cyclo-     C3H5,allyl      C3H6,propylene  C3H6,cyclo-     C3H6O,propylox 
 C3H6O,acetone   C3H6O,propanal  C3H7,n-propyl   C3H7,i-propyl   C3H8           
 C3H8O,1propanol C3H8O,2propanol C3O2            *C4             C4H2,butadiyne 
 C4H4,1,3-cyclo- C4H6,butadiene  C4H6,1butyne    C4H6,2butyne    C4H6,cyclo-    
 C4H8,1-butene   C4H8,cis2-buten C4H8,tr2-butene C4H8,isobutene  C4H8,cyclo-    
 (CH3COOH)2      C4H9,n-butyl    C4H9,i-butyl    C4H9,s-butyl    C4H9,t-butyl   
 C4H10,n-butane  C4H10,isobutane *C5             C5H6,1,3cyclo-  C5H8,cyclo-    
 C5H10,1-pentene C5H10,cyclo-    C5H11,pentyl    C5H11,t-pentyl  C5H12,n-pentane
 C5H12,i-pentane CH3C(CH3)2CH3   C6H2            C6H5,phenyl     C6H5O,phenoxy  
 C6H6            C6H5OH,phenol   C6H10,cyclo-    C6H12,1-hexene  C6H12,cyclo-   
 C6H13,n-hexyl   C6H14,n-hexane  C7H7,benzyl     C7H8            C7H8O,cresol-mx
 C7H14,1-heptene C7H15,n-heptyl  C7H16,n-heptane C7H16,2-methylh C8H8,styrene   
 C8H10,ethylbenz C8H16,1-octene  C8H17,n-octyl   C8H18,n-octane  C8H18,isooctane
 C9H19,n-nonyl   C10H8,naphthale C10H21,n-decyl  C12H9,o-bipheny C12H10,biphenyl
 HCO             HCCO            HO2             HCHO,formaldehy HCOOH          
 H2O2            (HCOOH)2        *O              *O2             O3             
 C(gr)           H2O(cr)         H2O(L)         

 NOTE. WEIGHT FRACTION OF FUEL IN TOTAL FUELS AND OF OXIDANT IN TOTAL OXIDANTS






 WARNING!!  ASSIGNED pip =   0.00000 IS NOT PERMITTED
 TO BE LESS THAN  Pinj/Pc =  1.00339. POINT OMITTED (ROCKET)





              THEORETICAL ROCKET PERFORMANCE ASSUMING EQUILIBRIUM

            COMPOSITION DURING EXPANSION FROM FINITE AREA COMBUSTOR

 Pin =    88.8 PSIA
 Ac/At = 11.2942      Pinj/Pinf =  1.001689
 CASE =                

             REACTANT                    WT FRACTION      ENERGY      TEMP
                                          (SEE NOTE)     KJ/KG-MOL      K  
 OXIDANT     O2                           0.9729618      8732.845    584.000
 OXIDANT     H2O                          0.0162229   -231904.341    584.000
 OXIDANT     CO2                          0.0108153   -381355.415    584.000
 FUEL        PMMA                         1.0000000   -442140.000    293.150

 O/F=    0.85804  %FUEL= 53.820125  R,EQ.RATIO= 1.922712  PHI,EQ.RATIO= 2.297092

                 INJECTOR  COMB END  THROAT
 Pinj/P            1.0000   1.0034   1.8028
 P, BAR            6.1200   6.0993   3.3948
 T, K             2357.69  2356.94  2106.60
 RHO, KG/CU M    6.3732-1 6.3538-1 3.9607-1
 H, KJ/KG        -2393.94 -2395.57 -2927.54
 U, KJ/KG        -3354.22 -3355.53 -3784.67
 G, KJ/KG        -30873.7 -30867.7 -28375.7
 S, KJ/(KG)(K)    12.0795  12.0802  12.0802

 M, (1/n)          20.414   20.414   20.435
 (dLV/dLP)t      -1.00076 -1.00076 -1.00025
 (dLV/dLT)p        1.0182   1.0182   1.0065
 Cp, KJ/(KG)(K)    2.2203   2.2200   2.0915
 GAMMAs            1.2337   1.2337   1.2451
 SON VEL,M/SEC     1088.4   1088.3   1033.1
 MACH NUMBER        0.000    0.052    1.000

 PERFORMANCE PARAMETERS

 Ae/At                      11.295   1.0000
 CSTAR, M/SEC               1493.2   1493.2
 CF                         0.0382   0.6918
 Ivac, M/SEC               16894.6   1862.8
 Isp, M/SEC                   57.0   1033.1


 MOLE FRACTIONS

 *CO              0.48770  0.48769  0.48245
 *CO2             0.06332  0.06334  0.06914
 *H               0.00265  0.00264  0.00090
 *H2              0.25478  0.25479  0.26151
 H2O              0.19116  0.19115  0.18591
 *OH              0.00038  0.00038  0.00009

  * THERMODYNAMIC PROPERTIES FITTED TO 20000.K

    PRODUCTS WHICH WERE CONSIDERED BUT WHOSE MOLE FRACTIONS
    WERE LESS THAN 5.000000E-06 FOR ALL ASSIGNED CONDITIONS

 *C              *CH             CH2             CH3             CH2OH          
 CH3O            CH4             CH3OH           CH3OOH          COOH           
 *C2             C2H             C2H2,acetylene  C2H2,vinylidene CH2CO,ketene   
 O(CH)2O         HO(CO)2OH       C2H3,vinyl      CH3CO,acetyl    C2H4           
 C2H4O,ethylen-o CH3CHO,ethanal  CH3COOH         OHCH2COOH       C2H5           
 C2H6            C2H5OH          CH3OCH3         CH3O2CH3        C2O            
 *C3             C3H3,1-propynl  C3H3,2-propynl  C3H4,allene     C3H4,propyne   
 C3H4,cyclo-     C3H5,allyl      C3H6,propylene  C3H6,cyclo-     C3H6O,propylox 
 C3H6O,acetone   C3H6O,propanal  C3H7,n-propyl   C3H7,i-propyl   C3H8           
 C3H8O,1propanol C3H8O,2propanol C3O2            *C4             C4H2,butadiyne 
 C4H4,1,3-cyclo- C4H6,butadiene  C4H6,1butyne    C4H6,2butyne    C4H6,cyclo-    
 C4H8,1-butene   C4H8,cis2-buten C4H8,tr2-butene C4H8,isobutene  C4H8,cyclo-    
 (CH3COOH)2      C4H9,n-butyl    C4H9,i-butyl    C4H9,s-butyl    C4H9,t-butyl   
 C4H10,n-butane  C4H10,isobutane *C5             C5H6,1,3cyclo-  C5H8,cyclo-    
 C5H10,1-pentene C5H10,cyclo-    C5H11,pentyl    C5H11,t-pentyl  C5H12,n-pentane
 C5H12,i-pentane CH3C(CH3)2CH3   C6H2            C6H5,phenyl     C6H5O,phenoxy  
 C6H6            C6H5OH,phenol   C6H10,cyclo-    C6H12,1-hexene  C6H12,cyclo-   
 C6H13,n-hexyl   C6H14,n-hexane  C7H7,benzyl     C7H8            C7H8O,cresol-mx
 C7H14,1-heptene C7H15,n-heptyl  C7H16,n-heptane C7H16,2-methylh C8H8,styrene   
 C8H10,ethylbenz C8H16,1-octene  C8H17,n-octyl   C8H18,n-octane  C8H18,isooctane
 C9H19,n-nonyl   C10H8,naphthale C10H21,n-decyl  C12H9,o-bipheny C12H10,biphenyl
 HCO             HCCO            HO2             HCHO,formaldehy HCOOH          
 H2O2            (HCOOH)2        *O              *O2             O3             
 C(gr)           H2O(cr)         H2O(L)         

 NOTE. WEIGHT FRACTION OF FUEL IN TOTAL FUELS AND OF OXIDANT IN TOTAL OXIDANTS






 WARNING!!  ASSIGNED pip =   0.00000 IS NOT PERMITTED
 TO BE LESS THAN  Pinj/Pc =  1.00339. POINT OMITTED (ROCKET)





              THEORETICAL ROCKET PERFORMANCE ASSUMING EQUILIBRIUM

            COMPOSITION DURING EXPANSION FROM FINITE AREA COMBUSTOR

 Pin =    88.8 PSIA
 Ac/At = 11.2942      Pinj/Pinf =  1.001689
 CASE =                

             REACTANT                    WT FRACTION      ENERGY      TEMP
                                          (SEE NOTE)     KJ/KG-MOL      K  
 OXIDANT     O2                           0.9729618      8732.845    584.000
 OXIDANT     H2O                          0.0162229   -231904.341    584.000
 OXIDANT     CO2                          0.0108153   -381355.415    584.000
 FUEL        PMMA                         1.0000000   -442140.000    293.150

 O/F=    0.85804  %FUEL= 53.820125  R,EQ.RATIO= 1.922712  PHI,EQ.RATIO= 2.297092

                 INJECTOR  COMB END  THROAT
 Pinj/P            1.0000   1.0034   1.8028
 P, BAR            6.1200   6.0993   3.3948
 T, K             2357.69  2356.94  2106.60
 RHO, KG/CU M    6.3732-1 6.3538-1 3.9607-1
 H, KJ/KG        -2393.94 -2395.57 -2927.54
 U, KJ/KG        -3354.22 -3355.53 -3784.67
 G, KJ/KG        -30873.7 -30867.7 -28375.7
 S, KJ/(KG)(K)    12.0795  12.0802  12.0802

 M, (1/n)          20.414   20.414   20.435
 (dLV/dLP)t      -1.00076 -1.00076 -1.00025
 (dLV/dLT)p        1.0182   1.0182   1.0065
 Cp, KJ/(KG)(K)    2.2203   2.2200   2.0915
 GAMMAs            1.2337   1.2337   1.2451
 SON VEL,M/SEC     1088.4   1088.3   1033.1
 MACH NUMBER        0.000    0.052    1.000

 PERFORMANCE PARAMETERS

 Ae/At                      11.295   1.0000
 CSTAR, M/SEC               1493.2   1493.2
 CF                         0.0382   0.6918
 Ivac, M/SEC               16894.6   1862.8
 Isp, M/SEC                   57.0   1033.1


 MOLE FRACTIONS

 *CO              0.48770  0.48769  0.48245
 *CO2             0.06332  0.06334  0.06914
 *H               0.00265  0.00264  0.00090
 *H2              0.25478  0.25479  0.26151
 H2O              0.19116  0.19115  0.18591
 *OH              0.00038  0.00038  0.00009

  * THERMODYNAMIC PROPERTIES FITTED TO 20000.K

    PRODUCTS WHICH WERE CONSIDERED BUT WHOSE MOLE FRACTIONS
    WERE LESS THAN 5.000000E-06 FOR ALL ASSIGNED CONDITIONS

 *C              *CH             CH2             CH3             CH2OH          
 CH3O            CH4             CH3OH           CH3OOH          COOH           
 *C2             C2H             C2H2,acetylene  C2H2,vinylidene CH2CO,ketene   
 O(CH)2O         HO(CO)2OH       C2H3,vinyl      CH3CO,acetyl    C2H4           
 C2H4O,ethylen-o CH3CHO,ethanal  CH3COOH         OHCH2COOH       C2H5           
 C2H6            C2H5OH          CH3OCH3         CH3O2CH3        C2O            
 *C3             C3H3,1-propynl  C3H3,2-propynl  C3H4,allene     C3H4,propyne   
 C3H4,cyclo-     C3H5,allyl      C3H6,propylene  C3H6,cyclo-     C3H6O,propylox 
 C3H6O,acetone   C3H6O,propanal  C3H7,n-propyl   C3H7,i-propyl   C3H8           
 C3H8O,1propanol C3H8O,2propanol C3O2            *C4             C4H2,butadiyne 
 C4H4,1,3-cyclo- C4H6,butadiene  C4H6,1butyne    C4H6,2butyne    C4H6,cyclo-    
 C4H8,1-butene   C4H8,cis2-buten C4H8,tr2-butene C4H8,isobutene  C4H8,cyclo-    
 (CH3COOH)2      C4H9,n-butyl    C4H9,i-butyl    C4H9,s-butyl    C4H9,t-butyl   
 C4H10,n-butane  C4H10,isobutane *C5             C5H6,1,3cyclo-  C5H8,cyclo-    
 C5H10,1-pentene C5H10,cyclo-    C5H11,pentyl    C5H11,t-pentyl  C5H12,n-pentane
 C5H12,i-pentane CH3C(CH3)2CH3   C6H2            C6H5,phenyl     C6H5O,phenoxy  
 C6H6            C6H5OH,phenol   C6H10,cyclo-    C6H12,1-hexene  C6H12,cyclo-   
 C6H13,n-hexyl   C6H14,n-hexane  C7H7,benzyl     C7H8            C7H8O,cresol-mx
 C7H14,1-heptene C7H15,n-heptyl  C7H16,n-heptane C7H16,2-methylh C8H8,styrene   
 C8H10,ethylbenz C8H16,1-octene  C8H17,n-octyl   C8H18,n-octane  C8H18,isooctane
 C9H19,n-nonyl   C10H8,naphthale C10H21,n-decyl  C12H9,o-bipheny C12H10,biphenyl
 HCO             HCCO            HO2             HCHO,formaldehy HCOOH          
 H2O2            (HCOOH)2        *O              *O2             O3             
 C(gr)           H2O(cr)         H2O(L)         

 NOTE. WEIGHT FRACTION OF FUEL IN TOTAL FUELS AND OF OXIDANT IN TOTAL OXIDANTS






 WARNING!!  ASSIGNED pip =   0.00000 IS NOT PERMITTED
 TO BE LESS THAN  Pinj/Pc =  1.00339. POINT OMITTED (ROCKET)





              THEORETICAL ROCKET PERFORMANCE ASSUMING EQUILIBRIUM

            COMPOSITION DURING EXPANSION FROM FINITE AREA COMBUSTOR

 Pin =    88.8 PSIA
 Ac/At = 11.2942      Pinj/Pinf =  1.001689
 CASE =                

             REACTANT                    WT FRACTION      ENERGY      TEMP
                                          (SEE NOTE)     KJ/KG-MOL      K  
 OXIDANT     O2                           0.9729618      8732.845    584.000
 OXIDANT     H2O                          0.0162229   -231904.341    584.000
 OXIDANT     CO2                          0.0108153   -381355.415    584.000
 FUEL        PMMA                         1.0000000   -442140.000    293.150

 O/F=    0.85804  %FUEL= 53.820125  R,EQ.RATIO= 1.922712  PHI,EQ.RATIO= 2.297092

                 INJECTOR  COMB END  THROAT
 Pinj/P            1.0000   1.0034   1.8028
 P, BAR            6.1200   6.0993   3.3948
 T, K             2357.69  2356.94  2106.60
 RHO, KG/CU M    6.3732-1 6.3538-1 3.9607-1
 H, KJ/KG        -2393.94 -2395.57 -2927.54
 U, KJ/KG        -3354.22 -3355.53 -3784.67
 G, KJ/KG        -30873.7 -30867.7 -28375.7
 S, KJ/(KG)(K)    12.0795  12.0802  12.0802

 M, (1/n)          20.414   20.414   20.435
 (dLV/dLP)t      -1.00076 -1.00076 -1.00025
 (dLV/dLT)p        1.0182   1.0182   1.0065
 Cp, KJ/(KG)(K)    2.2203   2.2200   2.0915
 GAMMAs            1.2337   1.2337   1.2451
 SON VEL,M/SEC     1088.4   1088.3   1033.1
 MACH NUMBER        0.000    0.052    1.000

 PERFORMANCE PARAMETERS

 Ae/At                      11.295   1.0000
 CSTAR, M/SEC               1493.2   1493.2
 CF                         0.0382   0.6918
 Ivac, M/SEC               16894.6   1862.8
 Isp, M/SEC                   57.0   1033.1


 MOLE FRACTIONS

 *CO              0.48770  0.48769  0.48245
 *CO2             0.06332  0.06334  0.06914
 *H               0.00265  0.00264  0.00090
 *H2              0.25478  0.25479  0.26151
 H2O              0.19116  0.19115  0.18591
 *OH              0.00038  0.00038  0.00009

  * THERMODYNAMIC PROPERTIES FITTED TO 20000.K

    PRODUCTS WHICH WERE CONSIDERED BUT WHOSE MOLE FRACTIONS
    WERE LESS THAN 5.000000E-06 FOR ALL ASSIGNED CONDITIONS

 *C              *CH             CH2             CH3             CH2OH          
 CH3O            CH4             CH3OH           CH3OOH          COOH           
 *C2             C2H             C2H2,acetylene  C2H2,vinylidene CH2CO,ketene   
 O(CH)2O         HO(CO)2OH       C2H3,vinyl      CH3CO,acetyl    C2H4           
 C2H4O,ethylen-o CH3CHO,ethanal  CH3COOH         OHCH2COOH       C2H5           
 C2H6            C2H5OH          CH3OCH3         CH3O2CH3        C2O            
 *C3             C3H3,1-propynl  C3H3,2-propynl  C3H4,allene     C3H4,propyne   
 C3H4,cyclo-     C3H5,allyl      C3H6,propylene  C3H6,cyclo-     C3H6O,propylox 
 C3H6O,acetone   C3H6O,propanal  C3H7,n-propyl   C3H7,i-propyl   C3H8           
 C3H8O,1propanol C3H8O,2propanol C3O2            *C4             C4H2,butadiyne 
 C4H4,1,3-cyclo- C4H6,butadiene  C4H6,1butyne    C4H6,2butyne    C4H6,cyclo-    
 C4H8,1-butene   C4H8,cis2-buten C4H8,tr2-butene C4H8,isobutene  C4H8,cyclo-    
 (CH3COOH)2      C4H9,n-butyl    C4H9,i-butyl    C4H9,s-butyl    C4H9,t-butyl   
 C4H10,n-butane  C4H10,isobutane *C5             C5H6,1,3cyclo-  C5H8,cyclo-    
 C5H10,1-pentene C5H10,cyclo-    C5H11,pentyl    C5H11,t-pentyl  C5H12,n-pentane
 C5H12,i-pentane CH3C(CH3)2CH3   C6H2            C6H5,phenyl     C6H5O,phenoxy  
 C6H6            C6H5OH,phenol   C6H10,cyclo-    C6H12,1-hexene  C6H12,cyclo-   
 C6H13,n-hexyl   C6H14,n-hexane  C7H7,benzyl     C7H8            C7H8O,cresol-mx
 C7H14,1-heptene C7H15,n-heptyl  C7H16,n-heptane C7H16,2-methylh C8H8,styrene   
 C8H10,ethylbenz C8H16,1-octene  C8H17,n-octyl   C8H18,n-octane  C8H18,isooctane
 C9H19,n-nonyl   C10H8,naphthale C10H21,n-decyl  C12H9,o-bipheny C12H10,biphenyl
 HCO             HCCO            HO2             HCHO,formaldehy HCOOH          
 H2O2            (HCOOH)2        *O              *O2             O3             
 C(gr)           H2O(cr)         H2O(L)         

 NOTE. WEIGHT FRACTION OF FUEL IN TOTAL FUELS AND OF OXIDANT IN TOTAL OXIDANTS





   4    5    1454.588     -28.282     -10.176      -8.934





              THEORETICAL ROCKET PERFORMANCE ASSUMING EQUILIBRIUM

            COMPOSITION DURING EXPANSION FROM FINITE AREA COMBUSTOR

 Pin =    88.8 PSIA
 Ac/At = 11.2942      Pinj/Pinf =  1.001689
 CASE =                

             REACTANT                    WT FRACTION      ENERGY      TEMP
                                          (SEE NOTE)     KJ/KG-MOL      K  
 OXIDANT     O2                           0.9729618      8732.845    584.000
 OXIDANT     H2O                          0.0162229   -231904.341    584.000
 OXIDANT     CO2                          0.0108153   -381355.415    584.000
 FUEL        PMMA                         1.0000000   -442140.000    293.150

 O/F=    0.85804  %FUEL= 53.820125  R,EQ.RATIO= 1.922712  PHI,EQ.RATIO= 2.297092

                 INJECTOR  COMB END  THROAT     EXIT
 Pinj/P            1.0000   1.0034   1.8028   11.294
 P, BAR            6.1200   6.0993   3.3948  0.54187
 T, K             2357.69  2356.94  2106.60  1454.59
 RHO, KG/CU M    6.3732-1 6.3538-1 3.9607-1 9.1602-2
 H, KJ/KG        -2393.94 -2395.57 -2927.54 -4243.06
 U, KJ/KG        -3354.22 -3355.53 -3784.67 -4834.61
 G, KJ/KG        -30873.7 -30867.7 -28375.7 -21814.7
 S, KJ/(KG)(K)    12.0795  12.0802  12.0802  12.0802

 M, (1/n)          20.414   20.414   20.435   20.445
 (dLV/dLP)t      -1.00076 -1.00076 -1.00025 -1.00000
 (dLV/dLT)p        1.0182   1.0182   1.0065   1.0001
 Cp, KJ/(KG)(K)    2.2203   2.2200   2.0915   1.9940
 GAMMAs            1.2337   1.2337   1.2451   1.2562
 SON VEL,M/SEC     1088.4   1088.3   1033.1    862.0
 MACH NUMBER        0.000    0.052    1.000    2.231

 PERFORMANCE PARAMETERS

 Ae/At                      11.295   1.0000   2.3227
 CSTAR, M/SEC               1493.2   1493.2   1493.2
 CF                         0.0382   0.6918   1.2879
 Ivac, M/SEC               16894.6   1862.8   2230.7
 Isp, M/SEC                   57.0   1033.1   1923.1


 MOLE FRACTIONS

 *CO              0.48770  0.48769  0.48245  0.45192
 *CO2             0.06332  0.06334  0.06914  0.09994
 *H               0.00265  0.00264  0.00090  0.00001
 *H2              0.25478  0.25479  0.26151  0.29282
 H2O              0.19116  0.19115  0.18591  0.15532
 *OH              0.00038  0.00038  0.00009  0.00000

  * THERMODYNAMIC PROPERTIES FITTED TO 20000.K

    PRODUCTS WHICH WERE CONSIDERED BUT WHOSE MOLE FRACTIONS
    WERE LESS THAN 5.000000E-06 FOR ALL ASSIGNED CONDITIONS

 *C              *CH             CH2             CH3             CH2OH          
 CH3O            CH4             CH3OH           CH3OOH          COOH           
 *C2             C2H             C2H2,acetylene  C2H2,vinylidene CH2CO,ketene   
 O(CH)2O         HO(CO)2OH       C2H3,vinyl      CH3CO,acetyl    C2H4           
 C2H4O,ethylen-o CH3CHO,ethanal  CH3COOH         OHCH2COOH       C2H5           
 C2H6            C2H5OH          CH3OCH3         CH3O2CH3        C2O            
 *C3             C3H3,1-propynl  C3H3,2-propynl  C3H4,allene     C3H4,propyne   
 C3H4,cyclo-     C3H5,allyl      C3H6,propylene  C3H6,cyclo-     C3H6O,propylox 
 C3H6O,acetone   C3H6O,propanal  C3H7,n-propyl   C3H7,i-propyl   C3H8           
 C3H8O,1propanol C3H8O,2propanol C3O2            *C4             C4H2,butadiyne 
 C4H4,1,3-cyclo- C4H6,butadiene  C4H6,1butyne    C4H6,2butyne    C4H6,cyclo-    
 C4H8,1-butene   C4H8,cis2-buten C4H8,tr2-butene C4H8,isobutene  C4H8,cyclo-    
 (CH3COOH)2      C4H9,n-butyl    C4H9,i-butyl    C4H9,s-butyl    C4H9,t-butyl   
 C4H10,n-butane  C4H10,isobutane *C5             C5H6,1,3cyclo-  C5H8,cyclo-    
 C5H10,1-pentene C5H10,cyclo-    C5H11,pentyl    C5H11,t-pentyl  C5H12,n-pentane
 C5H12,i-pentane CH3C(CH3)2CH3   C6H2            C6H5,phenyl     C6H5O,phenoxy  
 C6H6            C6H5OH,phenol   C6H10,cyclo-    C6H12,1-hexene  C6H12,cyclo-   
 C6H13,n-hexyl   C6H14,n-hexane  C7H7,benzyl     C7H8            C7H8O,cresol-mx
 C7H14,1-heptene C7H15,n-heptyl  C7H16,n-heptane C7H16,2-methylh C8H8,styrene   
 C8H10,ethylbenz C8H16,1-octene  C8H17,n-octyl   C8H18,n-octane  C8H18,isooctane
 C9H19,n-nonyl   C10H8,naphthale C10H21,n-decyl  C12H9,o-bipheny C12H10,biphenyl
 HCO             HCCO            HO2             HCHO,formaldehy HCOOH          
 H2O2            (HCOOH)2        *O              *O2             O3             
 C(gr)           H2O(cr)         H2O(L)         

 NOTE. WEIGHT FRACTION OF FUEL IN TOTAL FUELS AND OF OXIDANT IN TOTAL OXIDANTS



