
 *******************************************************************************

         NASA-GLENN CHEMICAL EQUILIBRIUM PROGRAM CEA2, MAY 21, 2004
                   BY  BONNIE MCBRIDE AND SANFORD GORDON
      REFS: NASA RP-1311, PART I, 1994 AND NASA RP-1311, PART II, 1996

 *******************************************************************************



 prob rocket fac p,bar=6.0,ac/at=7.610
 o/f=1.05432, pi/pe=1, fr
 react
 	oxid=O2(L) wt=100
 	fuel=PMMA  wt=100 t,k=293.15
 	h,kj/mol=-442.14  C 5 H 8 O 2
 end

 OPTIONS: TP=F  HP=F  SP=F  TV=F  UV=F  SV=F  DETN=F  SHOCK=F  REFL=F  INCD=F
 RKT=T  FROZ=T  EQL=T  IONS=F  SIUNIT=T  DEBUGF=F  SHKDBG=F  DETDBG=T  TRNSPT=F

 TRACE= 0.00E+00  S/R= 0.000000E+00  H/R= 0.000000E+00  U/R= 0.000000E+00

 Pc,BAR =     6.000000

 Pc/P =     1.0000

 SUBSONIC AREA RATIOS =

 SUPERSONIC AREA RATIOS =

 NFZ=  1  Mdot/Ac= 0.000000E+00  Ac/At= 7.610000E+00

    REACTANT          WT.FRAC   (ENERGY/R),K   TEMP,K  DENSITY
        EXPLODED FORMULA
 O: O2(L)            1.000000  -0.156101E+04    90.17  0.0000
          O  2.00000
 F: PMMA             1.000000  -0.531769E+05   293.15  0.0000
          C  5.00000  H  8.00000  O  2.00000

  SPECIES BEING CONSIDERED IN THIS SYSTEM
 (CONDENSED PHASE MAY HAVE NAME LISTED SEVERAL TIMES)
  LAST thermo.inp UPDATE:    9/09/04

  g 7/97  *C               tpis79  *CH              g 4/02  CH2            
  g 4/02  CH3              g11/00  CH2OH            g 7/00  CH3O           
  g 8/99  CH4              g 7/00  CH3OH            srd 01  CH3OOH         
  tpis79  *CO              g 9/99  *CO2             tpis91  COOH           
  tpis91  *C2              g 6/01  C2H              g 1/91  C2H2,acetylene 
  g 5/01  C2H2,vinylidene  g 4/02  CH2CO,ketene     g 3/02  O(CH)2O        
  srd 01  HO(CO)2OH        g 7/01  C2H3,vinyl       g 6/96  CH3CO,acetyl   
  g 1/00  C2H4             g 8/88  C2H4O,ethylen-o  g 8/88  CH3CHO,ethanal 
  g 6/00  CH3COOH          srd 01  OHCH2COOH        g 7/00  C2H5           
  g 7/00  C2H6             g 8/88  C2H5OH           g 7/00  CH3OCH3        
  srd 01  CH3O2CH3         g 8/00  C2O              tpis79  *C3            
  n 4/98  C3H3,1-propynl   n 4/98  C3H3,2-propynl   g 2/00  C3H4,allene    
  g 1/00  C3H4,propyne     g 5/90  C3H4,cyclo-      g 3/01  C3H5,allyl     
  g 2/00  C3H6,propylene   g 1/00  C3H6,cyclo-      g 6/01  C3H6O,propylox 
  g 6/97  C3H6O,acetone    g 1/02  C3H6O,propanal   g 7/01  C3H7,n-propyl  
  g 9/85  C3H7,i-propyl    g 2/00  C3H8             g 2/00  C3H8O,1propanol
  g 2/00  C3H8O,2propanol  g 7/88  C3O2             g tpis  *C4            
  g 7/01  C4H2,butadiyne   g 8/00  C4H4,1,3-cyclo-  n10/92  C4H6,butadiene 
  n10/93  C4H6,1butyne     n10/93  C4H6,2butyne     g 8/00  C4H6,cyclo-    
  n 4/88  C4H8,1-butene    n 4/88  C4H8,cis2-buten  n 4/88  C4H8,tr2-butene
  n 4/88  C4H8,isobutene   g 8/00  C4H8,cyclo-      g10/00  (CH3COOH)2     
  n10/84  C4H9,n-butyl     n10/84  C4H9,i-butyl     g 1/93  C4H9,s-butyl   
  g 1/93  C4H9,t-butyl     g12/00  C4H10,n-butane   g 8/00  C4H10,isobutane
  g 8/00  *C5              g 5/90  C5H6,1,3cyclo-   g 1/93  C5H8,cyclo-    
  n 4/87  C5H10,1-pentene  g 2/01  C5H10,cyclo-     n10/84  C5H11,pentyl   
  g 1/93  C5H11,t-pentyl   n10/85  C5H12,n-pentane  n10/85  C5H12,i-pentane
  n10/85  CH3C(CH3)2CH3    g 2/93  C6H2             g11/00  C6H5,phenyl    
  g 8/00  C6H5O,phenoxy    g 8/00  C6H6             g 8/00  C6H5OH,phenol  
  g 1/93  C6H10,cyclo-     n 4/87  C6H12,1-hexene   g 6/90  C6H12,cyclo-   
  n10/83  C6H13,n-hexyl    g 6/01  C6H14,n-hexane   g 7/01  C7H7,benzyl    
  g 1/93  C7H8             g12/00  C7H8O,cresol-mx  n 4/87  C7H14,1-heptene
  n10/83  C7H15,n-heptyl   n10/85  C7H16,n-heptane  n10/85  C7H16,2-methylh
  n 4/89  C8H8,styrene     n10/86  C8H10,ethylbenz  n 4/87  C8H16,1-octene 
  n10/83  C8H17,n-octyl    n 4/85  C8H18,n-octane   n 4/85  C8H18,isooctane
  n10/83  C9H19,n-nonyl    g 3/01  C10H8,naphthale  n10/83  C10H21,n-decyl 
  g 8/00  C12H9,o-bipheny  g 8/00  C12H10,biphenyl  g 6/97  *H             
  g 1/01  HCO              g 6/01  HCCO             g 4/02  HO2            
  tpis78  *H2              g 5/01  HCHO,formaldehy  g 6/01  HCOOH          
  g 8/89  H2O              g 6/99  H2O2             g 6/01  (HCOOH)2       
  g 5/97  *O               g 4/02  *OH              tpis89  *O2            
  g 8/01  O3               n 4/83  C(gr)            n 4/83  C(gr)          
  n 4/83  C(gr)            g11/99  H2O(cr)          g 8/01  H2O(L)         
  g 8/01  H2O(L)         

 O/F =   1.054320

                       EFFECTIVE FUEL     EFFECTIVE OXIDANT        MIXTURE
 ENTHALPY                  h(2)/R              h(1)/R               h0/R
 (KG-MOL)(K)/KG       -0.53115398E+03     -0.48783267E+02     -0.28359124E+03

 KG-FORM.WT./KG             bi(2)               bi(1)               b0i
  *O                   0.19976863E-01      0.62502344E-01      0.41801829E-01
  *C                   0.49942157E-01      0.00000000E+00      0.24310797E-01
  *H                   0.79907451E-01      0.00000000E+00      0.38897276E-01

 POINT ITN      T            O           C           H 
   1   23    2846.359     -18.110     -14.558     -10.372
   2    2    2844.766     -18.115     -14.587     -10.388
 Pinf/Pt = 1.753967
   3    4    2628.984     -18.863     -14.498     -10.514
 Pinf/Pt = 1.763525
   3    2    2626.874     -18.871     -14.497     -10.516
 Pinf/Pt = 1.763623
   3    1    2626.853     -18.871     -14.497     -10.516
   4    2    2842.898     -18.121     -14.586     -10.389
   4    2    2843.478     -18.119     -14.587     -10.389
   4    1    2843.399     -18.119     -14.587     -10.389
   4    1    2843.396     -18.119     -14.587     -10.389
   2    2    2846.186     -18.110     -14.562     -10.374
 Pinf/Pt = 1.754186
   3    4    2629.743     -18.860     -14.472     -10.500
 Pinf/Pt = 1.763739
   3    2    2627.630     -18.868     -14.470     -10.501
 Pinf/Pt = 1.763837
   3    1    2627.608     -18.868     -14.470     -10.501
   4    2    2844.311     -18.116     -14.561     -10.375
   4    2    2844.894     -18.114     -14.561     -10.375
   4    1    2844.814     -18.115     -14.561     -10.375
   4    1    2844.812     -18.115     -14.561     -10.375
 END OF CHAMBER ITERATIONS

 WARNING!!  ASSIGNED pip =   1.00000 IS NOT PERMITTED
 TO BE LESS THAN  Pinj/Pc =  1.00722. POINT OMITTED (ROCKET)





              THEORETICAL ROCKET PERFORMANCE ASSUMING EQUILIBRIUM

            COMPOSITION DURING EXPANSION FROM FINITE AREA COMBUSTOR

 Pin =    87.0 PSIA
 Ac/At =  7.6100      Pinj/Pinf =  1.003590
 CASE =                

             REACTANT                    WT FRACTION      ENERGY      TEMP
                                          (SEE NOTE)     KJ/KG-MOL      K  
 OXIDANT     O2(L)                        1.0000000    -12979.000     90.170
 FUEL        PMMA                         1.0000000   -442140.000    293.150

 O/F=    1.05432  %FUEL= 48.677908  R,EQ.RATIO= 1.628403  PHI,EQ.RATIO= 1.818904

                 INJECTOR  COMB END  THROAT
 Pinj/P            1.0000   1.0072   1.7702
 P, BAR            6.0000   5.9570   3.3895
 T, K             2846.36  2844.81  2627.61
 RHO, KG/CU M    5.7188-1 5.6811-1 3.5206-1
 H, KJ/KG        -2357.92 -2361.71 -2928.71
 U, KJ/KG        -3407.09 -3410.28 -3891.48
 G, KJ/KG        -35840.2 -35829.5 -33841.2
 S, KJ/(KG)(K)    11.7632  11.7645  11.7645

 M, (1/n)          22.557   22.558   22.692
 (dLV/dLP)t      -1.00684 -1.00683 -1.00361
 (dLV/dLT)p        1.1453   1.1450   1.0819
 Cp, KJ/(KG)(K)    3.1538   3.1519   2.6763
 GAMMAs            1.1716   1.1716   1.1857
 SON VEL,M/SEC     1108.7   1108.4   1068.4
 MACH NUMBER        0.000    0.078    1.000

 PERFORMANCE PARAMETERS

 Ae/At                      7.6100  1.00000
 CSTAR, M/SEC               1589.4   1589.4
 CF                         0.0547   0.6722
 Ivac, M/SEC               12138.6   1969.5
 Isp, M/SEC                   87.0   1068.4


 MOLE FRACTIONS

 *CO              0.43756  0.43754  0.43552
 *CO2             0.11081  0.11085  0.11615
 *H               0.01536  0.01534  0.00929
 *H2              0.15289  0.15292  0.15839
 H2O              0.27374  0.27375  0.27618
 *O               0.00050  0.00050  0.00014
 *OH              0.00876  0.00874  0.00423
 *O2              0.00036  0.00036  0.00010

  * THERMODYNAMIC PROPERTIES FITTED TO 20000.K

    PRODUCTS WHICH WERE CONSIDERED BUT WHOSE MOLE FRACTIONS
    WERE LESS THAN 5.000000E-06 FOR ALL ASSIGNED CONDITIONS

 *C              *CH             CH2             CH3             CH2OH          
 CH3O            CH4             CH3OH           CH3OOH          COOH           
 *C2             C2H             C2H2,acetylene  C2H2,vinylidene CH2CO,ketene   
 O(CH)2O         HO(CO)2OH       C2H3,vinyl      CH3CO,acetyl    C2H4           
 C2H4O,ethylen-o CH3CHO,ethanal  CH3COOH         OHCH2COOH       C2H5           
 C2H6            C2H5OH          CH3OCH3         CH3O2CH3        C2O            
 *C3             C3H3,1-propynl  C3H3,2-propynl  C3H4,allene     C3H4,propyne   
 C3H4,cyclo-     C3H5,allyl      C3H6,propylene  C3H6,cyclo-     C3H6O,propylox 
 C3H6O,acetone   C3H6O,propanal  C3H7,n-propyl   C3H7,i-propyl   C3H8           
 C3H8O,1propanol C3H8O,2propanol C3O2            *C4             C4H2,butadiyne 
 C4H4,1,3-cyclo- C4H6,butadiene  C4H6,1butyne    C4H6,2butyne    C4H6,cyclo-    
 C4H8,1-butene   C4H8,cis2-buten C4H8,tr2-butene C4H8,isobutene  C4H8,cyclo-    
 (CH3COOH)2      C4H9,n-butyl    C4H9,i-butyl    C4H9,s-butyl    C4H9,t-butyl   
 C4H10,n-butane  C4H10,isobutane *C5             C5H6,1,3cyclo-  C5H8,cyclo-    
 C5H10,1-pentene C5H10,cyclo-    C5H11,pentyl    C5H11,t-pentyl  C5H12,n-pentane
 C5H12,i-pentane CH3C(CH3)2CH3   C6H2            C6H5,phenyl     C6H5O,phenoxy  
 C6H6            C6H5OH,phenol   C6H10,cyclo-    C6H12,1-hexene  C6H12,cyclo-   
 C6H13,n-hexyl   C6H14,n-hexane  C7H7,benzyl     C7H8            C7H8O,cresol-mx
 C7H14,1-heptene C7H15,n-heptyl  C7H16,n-heptane C7H16,2-methylh C8H8,styrene   
 C8H10,ethylbenz C8H16,1-octene  C8H17,n-octyl   C8H18,n-octane  C8H18,isooctane
 C9H19,n-nonyl   C10H8,naphthale C10H21,n-decyl  C12H9,o-bipheny C12H10,biphenyl
 HCO             HCCO            HO2             HCHO,formaldehy HCOOH          
 H2O2            (HCOOH)2        O3              C(gr)           H2O(cr)        
 H2O(L)         

 NOTE. WEIGHT FRACTION OF FUEL IN TOTAL FUELS AND OF OXIDANT IN TOTAL OXIDANTS






 WARNING!!  ASSIGNED pip =   0.00000 IS NOT PERMITTED
 TO BE LESS THAN  Pinj/Pc =  1.00722. POINT OMITTED (ROCKET)





              THEORETICAL ROCKET PERFORMANCE ASSUMING EQUILIBRIUM

            COMPOSITION DURING EXPANSION FROM FINITE AREA COMBUSTOR

 Pin =    87.0 PSIA
 Ac/At =  7.6100      Pinj/Pinf =  1.003590
 CASE =                

             REACTANT                    WT FRACTION      ENERGY      TEMP
                                          (SEE NOTE)     KJ/KG-MOL      K  
 OXIDANT     O2(L)                        1.0000000    -12979.000     90.170
 FUEL        PMMA                         1.0000000   -442140.000    293.150

 O/F=    1.05432  %FUEL= 48.677908  R,EQ.RATIO= 1.628403  PHI,EQ.RATIO= 1.818904

                 INJECTOR  COMB END  THROAT
 Pinj/P            1.0000   1.0072   1.7702
 P, BAR            6.0000   5.9570   3.3895
 T, K             2846.36  2844.81  2627.61
 RHO, KG/CU M    5.7188-1 5.6811-1 3.5206-1
 H, KJ/KG        -2357.92 -2361.71 -2928.71
 U, KJ/KG        -3407.09 -3410.28 -3891.48
 G, KJ/KG        -35840.2 -35829.5 -33841.2
 S, KJ/(KG)(K)    11.7632  11.7645  11.7645

 M, (1/n)          22.557   22.558   22.692
 (dLV/dLP)t      -1.00684 -1.00683 -1.00361
 (dLV/dLT)p        1.1453   1.1450   1.0819
 Cp, KJ/(KG)(K)    3.1538   3.1519   2.6763
 GAMMAs            1.1716   1.1716   1.1857
 SON VEL,M/SEC     1108.7   1108.4   1068.4
 MACH NUMBER        0.000    0.078    1.000

 PERFORMANCE PARAMETERS

 Ae/At                      7.6100  1.00000
 CSTAR, M/SEC               1589.4   1589.4
 CF                         0.0547   0.6722
 Ivac, M/SEC               12138.6   1969.5
 Isp, M/SEC                   87.0   1068.4


 MOLE FRACTIONS

 *CO              0.43756  0.43754  0.43552
 *CO2             0.11081  0.11085  0.11615
 *H               0.01536  0.01534  0.00929
 *H2              0.15289  0.15292  0.15839
 H2O              0.27374  0.27375  0.27618
 *O               0.00050  0.00050  0.00014
 *OH              0.00876  0.00874  0.00423
 *O2              0.00036  0.00036  0.00010

  * THERMODYNAMIC PROPERTIES FITTED TO 20000.K

    PRODUCTS WHICH WERE CONSIDERED BUT WHOSE MOLE FRACTIONS
    WERE LESS THAN 5.000000E-06 FOR ALL ASSIGNED CONDITIONS

 *C              *CH             CH2             CH3             CH2OH          
 CH3O            CH4             CH3OH           CH3OOH          COOH           
 *C2             C2H             C2H2,acetylene  C2H2,vinylidene CH2CO,ketene   
 O(CH)2O         HO(CO)2OH       C2H3,vinyl      CH3CO,acetyl    C2H4           
 C2H4O,ethylen-o CH3CHO,ethanal  CH3COOH         OHCH2COOH       C2H5           
 C2H6            C2H5OH          CH3OCH3         CH3O2CH3        C2O            
 *C3             C3H3,1-propynl  C3H3,2-propynl  C3H4,allene     C3H4,propyne   
 C3H4,cyclo-     C3H5,allyl      C3H6,propylene  C3H6,cyclo-     C3H6O,propylox 
 C3H6O,acetone   C3H6O,propanal  C3H7,n-propyl   C3H7,i-propyl   C3H8           
 C3H8O,1propanol C3H8O,2propanol C3O2            *C4             C4H2,butadiyne 
 C4H4,1,3-cyclo- C4H6,butadiene  C4H6,1butyne    C4H6,2butyne    C4H6,cyclo-    
 C4H8,1-butene   C4H8,cis2-buten C4H8,tr2-butene C4H8,isobutene  C4H8,cyclo-    
 (CH3COOH)2      C4H9,n-butyl    C4H9,i-butyl    C4H9,s-butyl    C4H9,t-butyl   
 C4H10,n-butane  C4H10,isobutane *C5             C5H6,1,3cyclo-  C5H8,cyclo-    
 C5H10,1-pentene C5H10,cyclo-    C5H11,pentyl    C5H11,t-pentyl  C5H12,n-pentane
 C5H12,i-pentane CH3C(CH3)2CH3   C6H2            C6H5,phenyl     C6H5O,phenoxy  
 C6H6            C6H5OH,phenol   C6H10,cyclo-    C6H12,1-hexene  C6H12,cyclo-   
 C6H13,n-hexyl   C6H14,n-hexane  C7H7,benzyl     C7H8            C7H8O,cresol-mx
 C7H14,1-heptene C7H15,n-heptyl  C7H16,n-heptane C7H16,2-methylh C8H8,styrene   
 C8H10,ethylbenz C8H16,1-octene  C8H17,n-octyl   C8H18,n-octane  C8H18,isooctane
 C9H19,n-nonyl   C10H8,naphthale C10H21,n-decyl  C12H9,o-bipheny C12H10,biphenyl
 HCO             HCCO            HO2             HCHO,formaldehy HCOOH          
 H2O2            (HCOOH)2        O3              C(gr)           H2O(cr)        
 H2O(L)         

 NOTE. WEIGHT FRACTION OF FUEL IN TOTAL FUELS AND OF OXIDANT IN TOTAL OXIDANTS






 WARNING!!  ASSIGNED pip =   0.00000 IS NOT PERMITTED
 TO BE LESS THAN  Pinj/Pc =  1.00722. POINT OMITTED (ROCKET)





              THEORETICAL ROCKET PERFORMANCE ASSUMING EQUILIBRIUM

            COMPOSITION DURING EXPANSION FROM FINITE AREA COMBUSTOR

 Pin =    87.0 PSIA
 Ac/At =  7.6100      Pinj/Pinf =  1.003590
 CASE =                

             REACTANT                    WT FRACTION      ENERGY      TEMP
                                          (SEE NOTE)     KJ/KG-MOL      K  
 OXIDANT     O2(L)                        1.0000000    -12979.000     90.170
 FUEL        PMMA                         1.0000000   -442140.000    293.150

 O/F=    1.05432  %FUEL= 48.677908  R,EQ.RATIO= 1.628403  PHI,EQ.RATIO= 1.818904

                 INJECTOR  COMB END  THROAT
 Pinj/P            1.0000   1.0072   1.7702
 P, BAR            6.0000   5.9570   3.3895
 T, K             2846.36  2844.81  2627.61
 RHO, KG/CU M    5.7188-1 5.6811-1 3.5206-1
 H, KJ/KG        -2357.92 -2361.71 -2928.71
 U, KJ/KG        -3407.09 -3410.28 -3891.48
 G, KJ/KG        -35840.2 -35829.5 -33841.2
 S, KJ/(KG)(K)    11.7632  11.7645  11.7645

 M, (1/n)          22.557   22.558   22.692
 (dLV/dLP)t      -1.00684 -1.00683 -1.00361
 (dLV/dLT)p        1.1453   1.1450   1.0819
 Cp, KJ/(KG)(K)    3.1538   3.1519   2.6763
 GAMMAs            1.1716   1.1716   1.1857
 SON VEL,M/SEC     1108.7   1108.4   1068.4
 MACH NUMBER        0.000    0.078    1.000

 PERFORMANCE PARAMETERS

 Ae/At                      7.6100  1.00000
 CSTAR, M/SEC               1589.4   1589.4
 CF                         0.0547   0.6722
 Ivac, M/SEC               12138.6   1969.5
 Isp, M/SEC                   87.0   1068.4


 MOLE FRACTIONS

 *CO              0.43756  0.43754  0.43552
 *CO2             0.11081  0.11085  0.11615
 *H               0.01536  0.01534  0.00929
 *H2              0.15289  0.15292  0.15839
 H2O              0.27374  0.27375  0.27618
 *O               0.00050  0.00050  0.00014
 *OH              0.00876  0.00874  0.00423
 *O2              0.00036  0.00036  0.00010

  * THERMODYNAMIC PROPERTIES FITTED TO 20000.K

    PRODUCTS WHICH WERE CONSIDERED BUT WHOSE MOLE FRACTIONS
    WERE LESS THAN 5.000000E-06 FOR ALL ASSIGNED CONDITIONS

 *C              *CH             CH2             CH3             CH2OH          
 CH3O            CH4             CH3OH           CH3OOH          COOH           
 *C2             C2H             C2H2,acetylene  C2H2,vinylidene CH2CO,ketene   
 O(CH)2O         HO(CO)2OH       C2H3,vinyl      CH3CO,acetyl    C2H4           
 C2H4O,ethylen-o CH3CHO,ethanal  CH3COOH         OHCH2COOH       C2H5           
 C2H6            C2H5OH          CH3OCH3         CH3O2CH3        C2O            
 *C3             C3H3,1-propynl  C3H3,2-propynl  C3H4,allene     C3H4,propyne   
 C3H4,cyclo-     C3H5,allyl      C3H6,propylene  C3H6,cyclo-     C3H6O,propylox 
 C3H6O,acetone   C3H6O,propanal  C3H7,n-propyl   C3H7,i-propyl   C3H8           
 C3H8O,1propanol C3H8O,2propanol C3O2            *C4             C4H2,butadiyne 
 C4H4,1,3-cyclo- C4H6,butadiene  C4H6,1butyne    C4H6,2butyne    C4H6,cyclo-    
 C4H8,1-butene   C4H8,cis2-buten C4H8,tr2-butene C4H8,isobutene  C4H8,cyclo-    
 (CH3COOH)2      C4H9,n-butyl    C4H9,i-butyl    C4H9,s-butyl    C4H9,t-butyl   
 C4H10,n-butane  C4H10,isobutane *C5             C5H6,1,3cyclo-  C5H8,cyclo-    
 C5H10,1-pentene C5H10,cyclo-    C5H11,pentyl    C5H11,t-pentyl  C5H12,n-pentane
 C5H12,i-pentane CH3C(CH3)2CH3   C6H2            C6H5,phenyl     C6H5O,phenoxy  
 C6H6            C6H5OH,phenol   C6H10,cyclo-    C6H12,1-hexene  C6H12,cyclo-   
 C6H13,n-hexyl   C6H14,n-hexane  C7H7,benzyl     C7H8            C7H8O,cresol-mx
 C7H14,1-heptene C7H15,n-heptyl  C7H16,n-heptane C7H16,2-methylh C8H8,styrene   
 C8H10,ethylbenz C8H16,1-octene  C8H17,n-octyl   C8H18,n-octane  C8H18,isooctane
 C9H19,n-nonyl   C10H8,naphthale C10H21,n-decyl  C12H9,o-bipheny C12H10,biphenyl
 HCO             HCCO            HO2             HCHO,formaldehy HCOOH          
 H2O2            (HCOOH)2        O3              C(gr)           H2O(cr)        
 H2O(L)         

 NOTE. WEIGHT FRACTION OF FUEL IN TOTAL FUELS AND OF OXIDANT IN TOTAL OXIDANTS






 WARNING!!  ASSIGNED pip =   0.00000 IS NOT PERMITTED
 TO BE LESS THAN  Pinj/Pc =  1.00722. POINT OMITTED (ROCKET)





              THEORETICAL ROCKET PERFORMANCE ASSUMING EQUILIBRIUM

            COMPOSITION DURING EXPANSION FROM FINITE AREA COMBUSTOR

 Pin =    87.0 PSIA
 Ac/At =  7.6100      Pinj/Pinf =  1.003590
 CASE =                

             REACTANT                    WT FRACTION      ENERGY      TEMP
                                          (SEE NOTE)     KJ/KG-MOL      K  
 OXIDANT     O2(L)                        1.0000000    -12979.000     90.170
 FUEL        PMMA                         1.0000000   -442140.000    293.150

 O/F=    1.05432  %FUEL= 48.677908  R,EQ.RATIO= 1.628403  PHI,EQ.RATIO= 1.818904

                 INJECTOR  COMB END  THROAT
 Pinj/P            1.0000   1.0072   1.7702
 P, BAR            6.0000   5.9570   3.3895
 T, K             2846.36  2844.81  2627.61
 RHO, KG/CU M    5.7188-1 5.6811-1 3.5206-1
 H, KJ/KG        -2357.92 -2361.71 -2928.71
 U, KJ/KG        -3407.09 -3410.28 -3891.48
 G, KJ/KG        -35840.2 -35829.5 -33841.2
 S, KJ/(KG)(K)    11.7632  11.7645  11.7645

 M, (1/n)          22.557   22.558   22.692
 (dLV/dLP)t      -1.00684 -1.00683 -1.00361
 (dLV/dLT)p        1.1453   1.1450   1.0819
 Cp, KJ/(KG)(K)    3.1538   3.1519   2.6763
 GAMMAs            1.1716   1.1716   1.1857
 SON VEL,M/SEC     1108.7   1108.4   1068.4
 MACH NUMBER        0.000    0.078    1.000

 PERFORMANCE PARAMETERS

 Ae/At                      7.6100  1.00000
 CSTAR, M/SEC               1589.4   1589.4
 CF                         0.0547   0.6722
 Ivac, M/SEC               12138.6   1969.5
 Isp, M/SEC                   87.0   1068.4


 MOLE FRACTIONS

 *CO              0.43756  0.43754  0.43552
 *CO2             0.11081  0.11085  0.11615
 *H               0.01536  0.01534  0.00929
 *H2              0.15289  0.15292  0.15839
 H2O              0.27374  0.27375  0.27618
 *O               0.00050  0.00050  0.00014
 *OH              0.00876  0.00874  0.00423
 *O2              0.00036  0.00036  0.00010

  * THERMODYNAMIC PROPERTIES FITTED TO 20000.K

    PRODUCTS WHICH WERE CONSIDERED BUT WHOSE MOLE FRACTIONS
    WERE LESS THAN 5.000000E-06 FOR ALL ASSIGNED CONDITIONS

 *C              *CH             CH2             CH3             CH2OH          
 CH3O            CH4             CH3OH           CH3OOH          COOH           
 *C2             C2H             C2H2,acetylene  C2H2,vinylidene CH2CO,ketene   
 O(CH)2O         HO(CO)2OH       C2H3,vinyl      CH3CO,acetyl    C2H4           
 C2H4O,ethylen-o CH3CHO,ethanal  CH3COOH         OHCH2COOH       C2H5           
 C2H6            C2H5OH          CH3OCH3         CH3O2CH3        C2O            
 *C3             C3H3,1-propynl  C3H3,2-propynl  C3H4,allene     C3H4,propyne   
 C3H4,cyclo-     C3H5,allyl      C3H6,propylene  C3H6,cyclo-     C3H6O,propylox 
 C3H6O,acetone   C3H6O,propanal  C3H7,n-propyl   C3H7,i-propyl   C3H8           
 C3H8O,1propanol C3H8O,2propanol C3O2            *C4             C4H2,butadiyne 
 C4H4,1,3-cyclo- C4H6,butadiene  C4H6,1butyne    C4H6,2butyne    C4H6,cyclo-    
 C4H8,1-butene   C4H8,cis2-buten C4H8,tr2-butene C4H8,isobutene  C4H8,cyclo-    
 (CH3COOH)2      C4H9,n-butyl    C4H9,i-butyl    C4H9,s-butyl    C4H9,t-butyl   
 C4H10,n-butane  C4H10,isobutane *C5             C5H6,1,3cyclo-  C5H8,cyclo-    
 C5H10,1-pentene C5H10,cyclo-    C5H11,pentyl    C5H11,t-pentyl  C5H12,n-pentane
 C5H12,i-pentane CH3C(CH3)2CH3   C6H2            C6H5,phenyl     C6H5O,phenoxy  
 C6H6            C6H5OH,phenol   C6H10,cyclo-    C6H12,1-hexene  C6H12,cyclo-   
 C6H13,n-hexyl   C6H14,n-hexane  C7H7,benzyl     C7H8            C7H8O,cresol-mx
 C7H14,1-heptene C7H15,n-heptyl  C7H16,n-heptane C7H16,2-methylh C8H8,styrene   
 C8H10,ethylbenz C8H16,1-octene  C8H17,n-octyl   C8H18,n-octane  C8H18,isooctane
 C9H19,n-nonyl   C10H8,naphthale C10H21,n-decyl  C12H9,o-bipheny C12H10,biphenyl
 HCO             HCCO            HO2             HCHO,formaldehy HCOOH          
 H2O2            (HCOOH)2        O3              C(gr)           H2O(cr)        
 H2O(L)         

 NOTE. WEIGHT FRACTION OF FUEL IN TOTAL FUELS AND OF OXIDANT IN TOTAL OXIDANTS






 WARNING!!  ASSIGNED pip =   0.00000 IS NOT PERMITTED
 TO BE LESS THAN  Pinj/Pc =  1.00722. POINT OMITTED (ROCKET)





              THEORETICAL ROCKET PERFORMANCE ASSUMING EQUILIBRIUM

            COMPOSITION DURING EXPANSION FROM FINITE AREA COMBUSTOR

 Pin =    87.0 PSIA
 Ac/At =  7.6100      Pinj/Pinf =  1.003590
 CASE =                

             REACTANT                    WT FRACTION      ENERGY      TEMP
                                          (SEE NOTE)     KJ/KG-MOL      K  
 OXIDANT     O2(L)                        1.0000000    -12979.000     90.170
 FUEL        PMMA                         1.0000000   -442140.000    293.150

 O/F=    1.05432  %FUEL= 48.677908  R,EQ.RATIO= 1.628403  PHI,EQ.RATIO= 1.818904

                 INJECTOR  COMB END  THROAT
 Pinj/P            1.0000   1.0072   1.7702
 P, BAR            6.0000   5.9570   3.3895
 T, K             2846.36  2844.81  2627.61
 RHO, KG/CU M    5.7188-1 5.6811-1 3.5206-1
 H, KJ/KG        -2357.92 -2361.71 -2928.71
 U, KJ/KG        -3407.09 -3410.28 -3891.48
 G, KJ/KG        -35840.2 -35829.5 -33841.2
 S, KJ/(KG)(K)    11.7632  11.7645  11.7645

 M, (1/n)          22.557   22.558   22.692
 (dLV/dLP)t      -1.00684 -1.00683 -1.00361
 (dLV/dLT)p        1.1453   1.1450   1.0819
 Cp, KJ/(KG)(K)    3.1538   3.1519   2.6763
 GAMMAs            1.1716   1.1716   1.1857
 SON VEL,M/SEC     1108.7   1108.4   1068.4
 MACH NUMBER        0.000    0.078    1.000

 PERFORMANCE PARAMETERS

 Ae/At                      7.6100  1.00000
 CSTAR, M/SEC               1589.4   1589.4
 CF                         0.0547   0.6722
 Ivac, M/SEC               12138.6   1969.5
 Isp, M/SEC                   87.0   1068.4


 MOLE FRACTIONS

 *CO              0.43756  0.43754  0.43552
 *CO2             0.11081  0.11085  0.11615
 *H               0.01536  0.01534  0.00929
 *H2              0.15289  0.15292  0.15839
 H2O              0.27374  0.27375  0.27618
 *O               0.00050  0.00050  0.00014
 *OH              0.00876  0.00874  0.00423
 *O2              0.00036  0.00036  0.00010

  * THERMODYNAMIC PROPERTIES FITTED TO 20000.K

    PRODUCTS WHICH WERE CONSIDERED BUT WHOSE MOLE FRACTIONS
    WERE LESS THAN 5.000000E-06 FOR ALL ASSIGNED CONDITIONS

 *C              *CH             CH2             CH3             CH2OH          
 CH3O            CH4             CH3OH           CH3OOH          COOH           
 *C2             C2H             C2H2,acetylene  C2H2,vinylidene CH2CO,ketene   
 O(CH)2O         HO(CO)2OH       C2H3,vinyl      CH3CO,acetyl    C2H4           
 C2H4O,ethylen-o CH3CHO,ethanal  CH3COOH         OHCH2COOH       C2H5           
 C2H6            C2H5OH          CH3OCH3         CH3O2CH3        C2O            
 *C3             C3H3,1-propynl  C3H3,2-propynl  C3H4,allene     C3H4,propyne   
 C3H4,cyclo-     C3H5,allyl      C3H6,propylene  C3H6,cyclo-     C3H6O,propylox 
 C3H6O,acetone   C3H6O,propanal  C3H7,n-propyl   C3H7,i-propyl   C3H8           
 C3H8O,1propanol C3H8O,2propanol C3O2            *C4             C4H2,butadiyne 
 C4H4,1,3-cyclo- C4H6,butadiene  C4H6,1butyne    C4H6,2butyne    C4H6,cyclo-    
 C4H8,1-butene   C4H8,cis2-buten C4H8,tr2-butene C4H8,isobutene  C4H8,cyclo-    
 (CH3COOH)2      C4H9,n-butyl    C4H9,i-butyl    C4H9,s-butyl    C4H9,t-butyl   
 C4H10,n-butane  C4H10,isobutane *C5             C5H6,1,3cyclo-  C5H8,cyclo-    
 C5H10,1-pentene C5H10,cyclo-    C5H11,pentyl    C5H11,t-pentyl  C5H12,n-pentane
 C5H12,i-pentane CH3C(CH3)2CH3   C6H2            C6H5,phenyl     C6H5O,phenoxy  
 C6H6            C6H5OH,phenol   C6H10,cyclo-    C6H12,1-hexene  C6H12,cyclo-   
 C6H13,n-hexyl   C6H14,n-hexane  C7H7,benzyl     C7H8            C7H8O,cresol-mx
 C7H14,1-heptene C7H15,n-heptyl  C7H16,n-heptane C7H16,2-methylh C8H8,styrene   
 C8H10,ethylbenz C8H16,1-octene  C8H17,n-octyl   C8H18,n-octane  C8H18,isooctane
 C9H19,n-nonyl   C10H8,naphthale C10H21,n-decyl  C12H9,o-bipheny C12H10,biphenyl
 HCO             HCCO            HO2             HCHO,formaldehy HCOOH          
 H2O2            (HCOOH)2        O3              C(gr)           H2O(cr)        
 H2O(L)         

 NOTE. WEIGHT FRACTION OF FUEL IN TOTAL FUELS AND OF OXIDANT IN TOTAL OXIDANTS






 WARNING!!  ASSIGNED pip =   0.00000 IS NOT PERMITTED
 TO BE LESS THAN  Pinj/Pc =  1.00722. POINT OMITTED (ROCKET)





              THEORETICAL ROCKET PERFORMANCE ASSUMING EQUILIBRIUM

            COMPOSITION DURING EXPANSION FROM FINITE AREA COMBUSTOR

 Pin =    87.0 PSIA
 Ac/At =  7.6100      Pinj/Pinf =  1.003590
 CASE =                

             REACTANT                    WT FRACTION      ENERGY      TEMP
                                          (SEE NOTE)     KJ/KG-MOL      K  
 OXIDANT     O2(L)                        1.0000000    -12979.000     90.170
 FUEL        PMMA                         1.0000000   -442140.000    293.150

 O/F=    1.05432  %FUEL= 48.677908  R,EQ.RATIO= 1.628403  PHI,EQ.RATIO= 1.818904

                 INJECTOR  COMB END  THROAT
 Pinj/P            1.0000   1.0072   1.7702
 P, BAR            6.0000   5.9570   3.3895
 T, K             2846.36  2844.81  2627.61
 RHO, KG/CU M    5.7188-1 5.6811-1 3.5206-1
 H, KJ/KG        -2357.92 -2361.71 -2928.71
 U, KJ/KG        -3407.09 -3410.28 -3891.48
 G, KJ/KG        -35840.2 -35829.5 -33841.2
 S, KJ/(KG)(K)    11.7632  11.7645  11.7645

 M, (1/n)          22.557   22.558   22.692
 (dLV/dLP)t      -1.00684 -1.00683 -1.00361
 (dLV/dLT)p        1.1453   1.1450   1.0819
 Cp, KJ/(KG)(K)    3.1538   3.1519   2.6763
 GAMMAs            1.1716   1.1716   1.1857
 SON VEL,M/SEC     1108.7   1108.4   1068.4
 MACH NUMBER        0.000    0.078    1.000

 PERFORMANCE PARAMETERS

 Ae/At                      7.6100  1.00000
 CSTAR, M/SEC               1589.4   1589.4
 CF                         0.0547   0.6722
 Ivac, M/SEC               12138.6   1969.5
 Isp, M/SEC                   87.0   1068.4


 MOLE FRACTIONS

 *CO              0.43756  0.43754  0.43552
 *CO2             0.11081  0.11085  0.11615
 *H               0.01536  0.01534  0.00929
 *H2              0.15289  0.15292  0.15839
 H2O              0.27374  0.27375  0.27618
 *O               0.00050  0.00050  0.00014
 *OH              0.00876  0.00874  0.00423
 *O2              0.00036  0.00036  0.00010

  * THERMODYNAMIC PROPERTIES FITTED TO 20000.K

    PRODUCTS WHICH WERE CONSIDERED BUT WHOSE MOLE FRACTIONS
    WERE LESS THAN 5.000000E-06 FOR ALL ASSIGNED CONDITIONS

 *C              *CH             CH2             CH3             CH2OH          
 CH3O            CH4             CH3OH           CH3OOH          COOH           
 *C2             C2H             C2H2,acetylene  C2H2,vinylidene CH2CO,ketene   
 O(CH)2O         HO(CO)2OH       C2H3,vinyl      CH3CO,acetyl    C2H4           
 C2H4O,ethylen-o CH3CHO,ethanal  CH3COOH         OHCH2COOH       C2H5           
 C2H6            C2H5OH          CH3OCH3         CH3O2CH3        C2O            
 *C3             C3H3,1-propynl  C3H3,2-propynl  C3H4,allene     C3H4,propyne   
 C3H4,cyclo-     C3H5,allyl      C3H6,propylene  C3H6,cyclo-     C3H6O,propylox 
 C3H6O,acetone   C3H6O,propanal  C3H7,n-propyl   C3H7,i-propyl   C3H8           
 C3H8O,1propanol C3H8O,2propanol C3O2            *C4             C4H2,butadiyne 
 C4H4,1,3-cyclo- C4H6,butadiene  C4H6,1butyne    C4H6,2butyne    C4H6,cyclo-    
 C4H8,1-butene   C4H8,cis2-buten C4H8,tr2-butene C4H8,isobutene  C4H8,cyclo-    
 (CH3COOH)2      C4H9,n-butyl    C4H9,i-butyl    C4H9,s-butyl    C4H9,t-butyl   
 C4H10,n-butane  C4H10,isobutane *C5             C5H6,1,3cyclo-  C5H8,cyclo-    
 C5H10,1-pentene C5H10,cyclo-    C5H11,pentyl    C5H11,t-pentyl  C5H12,n-pentane
 C5H12,i-pentane CH3C(CH3)2CH3   C6H2            C6H5,phenyl     C6H5O,phenoxy  
 C6H6            C6H5OH,phenol   C6H10,cyclo-    C6H12,1-hexene  C6H12,cyclo-   
 C6H13,n-hexyl   C6H14,n-hexane  C7H7,benzyl     C7H8            C7H8O,cresol-mx
 C7H14,1-heptene C7H15,n-heptyl  C7H16,n-heptane C7H16,2-methylh C8H8,styrene   
 C8H10,ethylbenz C8H16,1-octene  C8H17,n-octyl   C8H18,n-octane  C8H18,isooctane
 C9H19,n-nonyl   C10H8,naphthale C10H21,n-decyl  C12H9,o-bipheny C12H10,biphenyl
 HCO             HCCO            HO2             HCHO,formaldehy HCOOH          
 H2O2            (HCOOH)2        O3              C(gr)           H2O(cr)        
 H2O(L)         

 NOTE. WEIGHT FRACTION OF FUEL IN TOTAL FUELS AND OF OXIDANT IN TOTAL OXIDANTS






 WARNING!!  ASSIGNED pip =   0.00000 IS NOT PERMITTED
 TO BE LESS THAN  Pinj/Pc =  1.00722. POINT OMITTED (ROCKET)





              THEORETICAL ROCKET PERFORMANCE ASSUMING EQUILIBRIUM

            COMPOSITION DURING EXPANSION FROM FINITE AREA COMBUSTOR

 Pin =    87.0 PSIA
 Ac/At =  7.6100      Pinj/Pinf =  1.003590
 CASE =                

             REACTANT                    WT FRACTION      ENERGY      TEMP
                                          (SEE NOTE)     KJ/KG-MOL      K  
 OXIDANT     O2(L)                        1.0000000    -12979.000     90.170
 FUEL        PMMA                         1.0000000   -442140.000    293.150

 O/F=    1.05432  %FUEL= 48.677908  R,EQ.RATIO= 1.628403  PHI,EQ.RATIO= 1.818904

                 INJECTOR  COMB END  THROAT
 Pinj/P            1.0000   1.0072   1.7702
 P, BAR            6.0000   5.9570   3.3895
 T, K             2846.36  2844.81  2627.61
 RHO, KG/CU M    5.7188-1 5.6811-1 3.5206-1
 H, KJ/KG        -2357.92 -2361.71 -2928.71
 U, KJ/KG        -3407.09 -3410.28 -3891.48
 G, KJ/KG        -35840.2 -35829.5 -33841.2
 S, KJ/(KG)(K)    11.7632  11.7645  11.7645

 M, (1/n)          22.557   22.558   22.692
 (dLV/dLP)t      -1.00684 -1.00683 -1.00361
 (dLV/dLT)p        1.1453   1.1450   1.0819
 Cp, KJ/(KG)(K)    3.1538   3.1519   2.6763
 GAMMAs            1.1716   1.1716   1.1857
 SON VEL,M/SEC     1108.7   1108.4   1068.4
 MACH NUMBER        0.000    0.078    1.000

 PERFORMANCE PARAMETERS

 Ae/At                      7.6100  1.00000
 CSTAR, M/SEC               1589.4   1589.4
 CF                         0.0547   0.6722
 Ivac, M/SEC               12138.6   1969.5
 Isp, M/SEC                   87.0   1068.4


 MOLE FRACTIONS

 *CO              0.43756  0.43754  0.43552
 *CO2             0.11081  0.11085  0.11615
 *H               0.01536  0.01534  0.00929
 *H2              0.15289  0.15292  0.15839
 H2O              0.27374  0.27375  0.27618
 *O               0.00050  0.00050  0.00014
 *OH              0.00876  0.00874  0.00423
 *O2              0.00036  0.00036  0.00010

  * THERMODYNAMIC PROPERTIES FITTED TO 20000.K

    PRODUCTS WHICH WERE CONSIDERED BUT WHOSE MOLE FRACTIONS
    WERE LESS THAN 5.000000E-06 FOR ALL ASSIGNED CONDITIONS

 *C              *CH             CH2             CH3             CH2OH          
 CH3O            CH4             CH3OH           CH3OOH          COOH           
 *C2             C2H             C2H2,acetylene  C2H2,vinylidene CH2CO,ketene   
 O(CH)2O         HO(CO)2OH       C2H3,vinyl      CH3CO,acetyl    C2H4           
 C2H4O,ethylen-o CH3CHO,ethanal  CH3COOH         OHCH2COOH       C2H5           
 C2H6            C2H5OH          CH3OCH3         CH3O2CH3        C2O            
 *C3             C3H3,1-propynl  C3H3,2-propynl  C3H4,allene     C3H4,propyne   
 C3H4,cyclo-     C3H5,allyl      C3H6,propylene  C3H6,cyclo-     C3H6O,propylox 
 C3H6O,acetone   C3H6O,propanal  C3H7,n-propyl   C3H7,i-propyl   C3H8           
 C3H8O,1propanol C3H8O,2propanol C3O2            *C4             C4H2,butadiyne 
 C4H4,1,3-cyclo- C4H6,butadiene  C4H6,1butyne    C4H6,2butyne    C4H6,cyclo-    
 C4H8,1-butene   C4H8,cis2-buten C4H8,tr2-butene C4H8,isobutene  C4H8,cyclo-    
 (CH3COOH)2      C4H9,n-butyl    C4H9,i-butyl    C4H9,s-butyl    C4H9,t-butyl   
 C4H10,n-butane  C4H10,isobutane *C5             C5H6,1,3cyclo-  C5H8,cyclo-    
 C5H10,1-pentene C5H10,cyclo-    C5H11,pentyl    C5H11,t-pentyl  C5H12,n-pentane
 C5H12,i-pentane CH3C(CH3)2CH3   C6H2            C6H5,phenyl     C6H5O,phenoxy  
 C6H6            C6H5OH,phenol   C6H10,cyclo-    C6H12,1-hexene  C6H12,cyclo-   
 C6H13,n-hexyl   C6H14,n-hexane  C7H7,benzyl     C7H8            C7H8O,cresol-mx
 C7H14,1-heptene C7H15,n-heptyl  C7H16,n-heptane C7H16,2-methylh C8H8,styrene   
 C8H10,ethylbenz C8H16,1-octene  C8H17,n-octyl   C8H18,n-octane  C8H18,isooctane
 C9H19,n-nonyl   C10H8,naphthale C10H21,n-decyl  C12H9,o-bipheny C12H10,biphenyl
 HCO             HCCO            HO2             HCHO,formaldehy HCOOH          
 H2O2            (HCOOH)2        O3              C(gr)           H2O(cr)        
 H2O(L)         

 NOTE. WEIGHT FRACTION OF FUEL IN TOTAL FUELS AND OF OXIDANT IN TOTAL OXIDANTS






 WARNING!!  ASSIGNED pip =   0.00000 IS NOT PERMITTED
 TO BE LESS THAN  Pinj/Pc =  1.00722. POINT OMITTED (ROCKET)





              THEORETICAL ROCKET PERFORMANCE ASSUMING EQUILIBRIUM

            COMPOSITION DURING EXPANSION FROM FINITE AREA COMBUSTOR

 Pin =    87.0 PSIA
 Ac/At =  7.6100      Pinj/Pinf =  1.003590
 CASE =                

             REACTANT                    WT FRACTION      ENERGY      TEMP
                                          (SEE NOTE)     KJ/KG-MOL      K  
 OXIDANT     O2(L)                        1.0000000    -12979.000     90.170
 FUEL        PMMA                         1.0000000   -442140.000    293.150

 O/F=    1.05432  %FUEL= 48.677908  R,EQ.RATIO= 1.628403  PHI,EQ.RATIO= 1.818904

                 INJECTOR  COMB END  THROAT
 Pinj/P            1.0000   1.0072   1.7702
 P, BAR            6.0000   5.9570   3.3895
 T, K             2846.36  2844.81  2627.61
 RHO, KG/CU M    5.7188-1 5.6811-1 3.5206-1
 H, KJ/KG        -2357.92 -2361.71 -2928.71
 U, KJ/KG        -3407.09 -3410.28 -3891.48
 G, KJ/KG        -35840.2 -35829.5 -33841.2
 S, KJ/(KG)(K)    11.7632  11.7645  11.7645

 M, (1/n)          22.557   22.558   22.692
 (dLV/dLP)t      -1.00684 -1.00683 -1.00361
 (dLV/dLT)p        1.1453   1.1450   1.0819
 Cp, KJ/(KG)(K)    3.1538   3.1519   2.6763
 GAMMAs            1.1716   1.1716   1.1857
 SON VEL,M/SEC     1108.7   1108.4   1068.4
 MACH NUMBER        0.000    0.078    1.000

 PERFORMANCE PARAMETERS

 Ae/At                      7.6100  1.00000
 CSTAR, M/SEC               1589.4   1589.4
 CF                         0.0547   0.6722
 Ivac, M/SEC               12138.6   1969.5
 Isp, M/SEC                   87.0   1068.4


 MOLE FRACTIONS

 *CO              0.43756  0.43754  0.43552
 *CO2             0.11081  0.11085  0.11615
 *H               0.01536  0.01534  0.00929
 *H2              0.15289  0.15292  0.15839
 H2O              0.27374  0.27375  0.27618
 *O               0.00050  0.00050  0.00014
 *OH              0.00876  0.00874  0.00423
 *O2              0.00036  0.00036  0.00010

  * THERMODYNAMIC PROPERTIES FITTED TO 20000.K

    PRODUCTS WHICH WERE CONSIDERED BUT WHOSE MOLE FRACTIONS
    WERE LESS THAN 5.000000E-06 FOR ALL ASSIGNED CONDITIONS

 *C              *CH             CH2             CH3             CH2OH          
 CH3O            CH4             CH3OH           CH3OOH          COOH           
 *C2             C2H             C2H2,acetylene  C2H2,vinylidene CH2CO,ketene   
 O(CH)2O         HO(CO)2OH       C2H3,vinyl      CH3CO,acetyl    C2H4           
 C2H4O,ethylen-o CH3CHO,ethanal  CH3COOH         OHCH2COOH       C2H5           
 C2H6            C2H5OH          CH3OCH3         CH3O2CH3        C2O            
 *C3             C3H3,1-propynl  C3H3,2-propynl  C3H4,allene     C3H4,propyne   
 C3H4,cyclo-     C3H5,allyl      C3H6,propylene  C3H6,cyclo-     C3H6O,propylox 
 C3H6O,acetone   C3H6O,propanal  C3H7,n-propyl   C3H7,i-propyl   C3H8           
 C3H8O,1propanol C3H8O,2propanol C3O2            *C4             C4H2,butadiyne 
 C4H4,1,3-cyclo- C4H6,butadiene  C4H6,1butyne    C4H6,2butyne    C4H6,cyclo-    
 C4H8,1-butene   C4H8,cis2-buten C4H8,tr2-butene C4H8,isobutene  C4H8,cyclo-    
 (CH3COOH)2      C4H9,n-butyl    C4H9,i-butyl    C4H9,s-butyl    C4H9,t-butyl   
 C4H10,n-butane  C4H10,isobutane *C5             C5H6,1,3cyclo-  C5H8,cyclo-    
 C5H10,1-pentene C5H10,cyclo-    C5H11,pentyl    C5H11,t-pentyl  C5H12,n-pentane
 C5H12,i-pentane CH3C(CH3)2CH3   C6H2            C6H5,phenyl     C6H5O,phenoxy  
 C6H6            C6H5OH,phenol   C6H10,cyclo-    C6H12,1-hexene  C6H12,cyclo-   
 C6H13,n-hexyl   C6H14,n-hexane  C7H7,benzyl     C7H8            C7H8O,cresol-mx
 C7H14,1-heptene C7H15,n-heptyl  C7H16,n-heptane C7H16,2-methylh C8H8,styrene   
 C8H10,ethylbenz C8H16,1-octene  C8H17,n-octyl   C8H18,n-octane  C8H18,isooctane
 C9H19,n-nonyl   C10H8,naphthale C10H21,n-decyl  C12H9,o-bipheny C12H10,biphenyl
 HCO             HCCO            HO2             HCHO,formaldehy HCOOH          
 H2O2            (HCOOH)2        O3              C(gr)           H2O(cr)        
 H2O(L)         

 NOTE. WEIGHT FRACTION OF FUEL IN TOTAL FUELS AND OF OXIDANT IN TOTAL OXIDANTS






 WARNING!!  ASSIGNED pip =   0.00000 IS NOT PERMITTED
 TO BE LESS THAN  Pinj/Pc =  1.00722. POINT OMITTED (ROCKET)





              THEORETICAL ROCKET PERFORMANCE ASSUMING EQUILIBRIUM

            COMPOSITION DURING EXPANSION FROM FINITE AREA COMBUSTOR

 Pin =    87.0 PSIA
 Ac/At =  7.6100      Pinj/Pinf =  1.003590
 CASE =                

             REACTANT                    WT FRACTION      ENERGY      TEMP
                                          (SEE NOTE)     KJ/KG-MOL      K  
 OXIDANT     O2(L)                        1.0000000    -12979.000     90.170
 FUEL        PMMA                         1.0000000   -442140.000    293.150

 O/F=    1.05432  %FUEL= 48.677908  R,EQ.RATIO= 1.628403  PHI,EQ.RATIO= 1.818904

                 INJECTOR  COMB END  THROAT
 Pinj/P            1.0000   1.0072   1.7702
 P, BAR            6.0000   5.9570   3.3895
 T, K             2846.36  2844.81  2627.61
 RHO, KG/CU M    5.7188-1 5.6811-1 3.5206-1
 H, KJ/KG        -2357.92 -2361.71 -2928.71
 U, KJ/KG        -3407.09 -3410.28 -3891.48
 G, KJ/KG        -35840.2 -35829.5 -33841.2
 S, KJ/(KG)(K)    11.7632  11.7645  11.7645

 M, (1/n)          22.557   22.558   22.692
 (dLV/dLP)t      -1.00684 -1.00683 -1.00361
 (dLV/dLT)p        1.1453   1.1450   1.0819
 Cp, KJ/(KG)(K)    3.1538   3.1519   2.6763
 GAMMAs            1.1716   1.1716   1.1857
 SON VEL,M/SEC     1108.7   1108.4   1068.4
 MACH NUMBER        0.000    0.078    1.000

 PERFORMANCE PARAMETERS

 Ae/At                      7.6100  1.00000
 CSTAR, M/SEC               1589.4   1589.4
 CF                         0.0547   0.6722
 Ivac, M/SEC               12138.6   1969.5
 Isp, M/SEC                   87.0   1068.4


 MOLE FRACTIONS

 *CO              0.43756  0.43754  0.43552
 *CO2             0.11081  0.11085  0.11615
 *H               0.01536  0.01534  0.00929
 *H2              0.15289  0.15292  0.15839
 H2O              0.27374  0.27375  0.27618
 *O               0.00050  0.00050  0.00014
 *OH              0.00876  0.00874  0.00423
 *O2              0.00036  0.00036  0.00010

  * THERMODYNAMIC PROPERTIES FITTED TO 20000.K

    PRODUCTS WHICH WERE CONSIDERED BUT WHOSE MOLE FRACTIONS
    WERE LESS THAN 5.000000E-06 FOR ALL ASSIGNED CONDITIONS

 *C              *CH             CH2             CH3             CH2OH          
 CH3O            CH4             CH3OH           CH3OOH          COOH           
 *C2             C2H             C2H2,acetylene  C2H2,vinylidene CH2CO,ketene   
 O(CH)2O         HO(CO)2OH       C2H3,vinyl      CH3CO,acetyl    C2H4           
 C2H4O,ethylen-o CH3CHO,ethanal  CH3COOH         OHCH2COOH       C2H5           
 C2H6            C2H5OH          CH3OCH3         CH3O2CH3        C2O            
 *C3             C3H3,1-propynl  C3H3,2-propynl  C3H4,allene     C3H4,propyne   
 C3H4,cyclo-     C3H5,allyl      C3H6,propylene  C3H6,cyclo-     C3H6O,propylox 
 C3H6O,acetone   C3H6O,propanal  C3H7,n-propyl   C3H7,i-propyl   C3H8           
 C3H8O,1propanol C3H8O,2propanol C3O2            *C4             C4H2,butadiyne 
 C4H4,1,3-cyclo- C4H6,butadiene  C4H6,1butyne    C4H6,2butyne    C4H6,cyclo-    
 C4H8,1-butene   C4H8,cis2-buten C4H8,tr2-butene C4H8,isobutene  C4H8,cyclo-    
 (CH3COOH)2      C4H9,n-butyl    C4H9,i-butyl    C4H9,s-butyl    C4H9,t-butyl   
 C4H10,n-butane  C4H10,isobutane *C5             C5H6,1,3cyclo-  C5H8,cyclo-    
 C5H10,1-pentene C5H10,cyclo-    C5H11,pentyl    C5H11,t-pentyl  C5H12,n-pentane
 C5H12,i-pentane CH3C(CH3)2CH3   C6H2            C6H5,phenyl     C6H5O,phenoxy  
 C6H6            C6H5OH,phenol   C6H10,cyclo-    C6H12,1-hexene  C6H12,cyclo-   
 C6H13,n-hexyl   C6H14,n-hexane  C7H7,benzyl     C7H8            C7H8O,cresol-mx
 C7H14,1-heptene C7H15,n-heptyl  C7H16,n-heptane C7H16,2-methylh C8H8,styrene   
 C8H10,ethylbenz C8H16,1-octene  C8H17,n-octyl   C8H18,n-octane  C8H18,isooctane
 C9H19,n-nonyl   C10H8,naphthale C10H21,n-decyl  C12H9,o-bipheny C12H10,biphenyl
 HCO             HCCO            HO2             HCHO,formaldehy HCOOH          
 H2O2            (HCOOH)2        O3              C(gr)           H2O(cr)        
 H2O(L)         

 NOTE. WEIGHT FRACTION OF FUEL IN TOTAL FUELS AND OF OXIDANT IN TOTAL OXIDANTS






 WARNING!!  ASSIGNED pip =   0.00000 IS NOT PERMITTED
 TO BE LESS THAN  Pinj/Pc =  1.00722. POINT OMITTED (ROCKET)





              THEORETICAL ROCKET PERFORMANCE ASSUMING EQUILIBRIUM

            COMPOSITION DURING EXPANSION FROM FINITE AREA COMBUSTOR

 Pin =    87.0 PSIA
 Ac/At =  7.6100      Pinj/Pinf =  1.003590
 CASE =                

             REACTANT                    WT FRACTION      ENERGY      TEMP
                                          (SEE NOTE)     KJ/KG-MOL      K  
 OXIDANT     O2(L)                        1.0000000    -12979.000     90.170
 FUEL        PMMA                         1.0000000   -442140.000    293.150

 O/F=    1.05432  %FUEL= 48.677908  R,EQ.RATIO= 1.628403  PHI,EQ.RATIO= 1.818904

                 INJECTOR  COMB END  THROAT
 Pinj/P            1.0000   1.0072   1.7702
 P, BAR            6.0000   5.9570   3.3895
 T, K             2846.36  2844.81  2627.61
 RHO, KG/CU M    5.7188-1 5.6811-1 3.5206-1
 H, KJ/KG        -2357.92 -2361.71 -2928.71
 U, KJ/KG        -3407.09 -3410.28 -3891.48
 G, KJ/KG        -35840.2 -35829.5 -33841.2
 S, KJ/(KG)(K)    11.7632  11.7645  11.7645

 M, (1/n)          22.557   22.558   22.692
 (dLV/dLP)t      -1.00684 -1.00683 -1.00361
 (dLV/dLT)p        1.1453   1.1450   1.0819
 Cp, KJ/(KG)(K)    3.1538   3.1519   2.6763
 GAMMAs            1.1716   1.1716   1.1857
 SON VEL,M/SEC     1108.7   1108.4   1068.4
 MACH NUMBER        0.000    0.078    1.000

 PERFORMANCE PARAMETERS

 Ae/At                      7.6100  1.00000
 CSTAR, M/SEC               1589.4   1589.4
 CF                         0.0547   0.6722
 Ivac, M/SEC               12138.6   1969.5
 Isp, M/SEC                   87.0   1068.4


 MOLE FRACTIONS

 *CO              0.43756  0.43754  0.43552
 *CO2             0.11081  0.11085  0.11615
 *H               0.01536  0.01534  0.00929
 *H2              0.15289  0.15292  0.15839
 H2O              0.27374  0.27375  0.27618
 *O               0.00050  0.00050  0.00014
 *OH              0.00876  0.00874  0.00423
 *O2              0.00036  0.00036  0.00010

  * THERMODYNAMIC PROPERTIES FITTED TO 20000.K

    PRODUCTS WHICH WERE CONSIDERED BUT WHOSE MOLE FRACTIONS
    WERE LESS THAN 5.000000E-06 FOR ALL ASSIGNED CONDITIONS

 *C              *CH             CH2             CH3             CH2OH          
 CH3O            CH4             CH3OH           CH3OOH          COOH           
 *C2             C2H             C2H2,acetylene  C2H2,vinylidene CH2CO,ketene   
 O(CH)2O         HO(CO)2OH       C2H3,vinyl      CH3CO,acetyl    C2H4           
 C2H4O,ethylen-o CH3CHO,ethanal  CH3COOH         OHCH2COOH       C2H5           
 C2H6            C2H5OH          CH3OCH3         CH3O2CH3        C2O            
 *C3             C3H3,1-propynl  C3H3,2-propynl  C3H4,allene     C3H4,propyne   
 C3H4,cyclo-     C3H5,allyl      C3H6,propylene  C3H6,cyclo-     C3H6O,propylox 
 C3H6O,acetone   C3H6O,propanal  C3H7,n-propyl   C3H7,i-propyl   C3H8           
 C3H8O,1propanol C3H8O,2propanol C3O2            *C4             C4H2,butadiyne 
 C4H4,1,3-cyclo- C4H6,butadiene  C4H6,1butyne    C4H6,2butyne    C4H6,cyclo-    
 C4H8,1-butene   C4H8,cis2-buten C4H8,tr2-butene C4H8,isobutene  C4H8,cyclo-    
 (CH3COOH)2      C4H9,n-butyl    C4H9,i-butyl    C4H9,s-butyl    C4H9,t-butyl   
 C4H10,n-butane  C4H10,isobutane *C5             C5H6,1,3cyclo-  C5H8,cyclo-    
 C5H10,1-pentene C5H10,cyclo-    C5H11,pentyl    C5H11,t-pentyl  C5H12,n-pentane
 C5H12,i-pentane CH3C(CH3)2CH3   C6H2            C6H5,phenyl     C6H5O,phenoxy  
 C6H6            C6H5OH,phenol   C6H10,cyclo-    C6H12,1-hexene  C6H12,cyclo-   
 C6H13,n-hexyl   C6H14,n-hexane  C7H7,benzyl     C7H8            C7H8O,cresol-mx
 C7H14,1-heptene C7H15,n-heptyl  C7H16,n-heptane C7H16,2-methylh C8H8,styrene   
 C8H10,ethylbenz C8H16,1-octene  C8H17,n-octyl   C8H18,n-octane  C8H18,isooctane
 C9H19,n-nonyl   C10H8,naphthale C10H21,n-decyl  C12H9,o-bipheny C12H10,biphenyl
 HCO             HCCO            HO2             HCHO,formaldehy HCOOH          
 H2O2            (HCOOH)2        O3              C(gr)           H2O(cr)        
 H2O(L)         

 NOTE. WEIGHT FRACTION OF FUEL IN TOTAL FUELS AND OF OXIDANT IN TOTAL OXIDANTS






 WARNING!!  ASSIGNED pip =   0.00000 IS NOT PERMITTED
 TO BE LESS THAN  Pinj/Pc =  1.00722. POINT OMITTED (ROCKET)





              THEORETICAL ROCKET PERFORMANCE ASSUMING EQUILIBRIUM

            COMPOSITION DURING EXPANSION FROM FINITE AREA COMBUSTOR

 Pin =    87.0 PSIA
 Ac/At =  7.6100      Pinj/Pinf =  1.003590
 CASE =                

             REACTANT                    WT FRACTION      ENERGY      TEMP
                                          (SEE NOTE)     KJ/KG-MOL      K  
 OXIDANT     O2(L)                        1.0000000    -12979.000     90.170
 FUEL        PMMA                         1.0000000   -442140.000    293.150

 O/F=    1.05432  %FUEL= 48.677908  R,EQ.RATIO= 1.628403  PHI,EQ.RATIO= 1.818904

                 INJECTOR  COMB END  THROAT
 Pinj/P            1.0000   1.0072   1.7702
 P, BAR            6.0000   5.9570   3.3895
 T, K             2846.36  2844.81  2627.61
 RHO, KG/CU M    5.7188-1 5.6811-1 3.5206-1
 H, KJ/KG        -2357.92 -2361.71 -2928.71
 U, KJ/KG        -3407.09 -3410.28 -3891.48
 G, KJ/KG        -35840.2 -35829.5 -33841.2
 S, KJ/(KG)(K)    11.7632  11.7645  11.7645

 M, (1/n)          22.557   22.558   22.692
 (dLV/dLP)t      -1.00684 -1.00683 -1.00361
 (dLV/dLT)p        1.1453   1.1450   1.0819
 Cp, KJ/(KG)(K)    3.1538   3.1519   2.6763
 GAMMAs            1.1716   1.1716   1.1857
 SON VEL,M/SEC     1108.7   1108.4   1068.4
 MACH NUMBER        0.000    0.078    1.000

 PERFORMANCE PARAMETERS

 Ae/At                      7.6100  1.00000
 CSTAR, M/SEC               1589.4   1589.4
 CF                         0.0547   0.6722
 Ivac, M/SEC               12138.6   1969.5
 Isp, M/SEC                   87.0   1068.4


 MOLE FRACTIONS

 *CO              0.43756  0.43754  0.43552
 *CO2             0.11081  0.11085  0.11615
 *H               0.01536  0.01534  0.00929
 *H2              0.15289  0.15292  0.15839
 H2O              0.27374  0.27375  0.27618
 *O               0.00050  0.00050  0.00014
 *OH              0.00876  0.00874  0.00423
 *O2              0.00036  0.00036  0.00010

  * THERMODYNAMIC PROPERTIES FITTED TO 20000.K

    PRODUCTS WHICH WERE CONSIDERED BUT WHOSE MOLE FRACTIONS
    WERE LESS THAN 5.000000E-06 FOR ALL ASSIGNED CONDITIONS

 *C              *CH             CH2             CH3             CH2OH          
 CH3O            CH4             CH3OH           CH3OOH          COOH           
 *C2             C2H             C2H2,acetylene  C2H2,vinylidene CH2CO,ketene   
 O(CH)2O         HO(CO)2OH       C2H3,vinyl      CH3CO,acetyl    C2H4           
 C2H4O,ethylen-o CH3CHO,ethanal  CH3COOH         OHCH2COOH       C2H5           
 C2H6            C2H5OH          CH3OCH3         CH3O2CH3        C2O            
 *C3             C3H3,1-propynl  C3H3,2-propynl  C3H4,allene     C3H4,propyne   
 C3H4,cyclo-     C3H5,allyl      C3H6,propylene  C3H6,cyclo-     C3H6O,propylox 
 C3H6O,acetone   C3H6O,propanal  C3H7,n-propyl   C3H7,i-propyl   C3H8           
 C3H8O,1propanol C3H8O,2propanol C3O2            *C4             C4H2,butadiyne 
 C4H4,1,3-cyclo- C4H6,butadiene  C4H6,1butyne    C4H6,2butyne    C4H6,cyclo-    
 C4H8,1-butene   C4H8,cis2-buten C4H8,tr2-butene C4H8,isobutene  C4H8,cyclo-    
 (CH3COOH)2      C4H9,n-butyl    C4H9,i-butyl    C4H9,s-butyl    C4H9,t-butyl   
 C4H10,n-butane  C4H10,isobutane *C5             C5H6,1,3cyclo-  C5H8,cyclo-    
 C5H10,1-pentene C5H10,cyclo-    C5H11,pentyl    C5H11,t-pentyl  C5H12,n-pentane
 C5H12,i-pentane CH3C(CH3)2CH3   C6H2            C6H5,phenyl     C6H5O,phenoxy  
 C6H6            C6H5OH,phenol   C6H10,cyclo-    C6H12,1-hexene  C6H12,cyclo-   
 C6H13,n-hexyl   C6H14,n-hexane  C7H7,benzyl     C7H8            C7H8O,cresol-mx
 C7H14,1-heptene C7H15,n-heptyl  C7H16,n-heptane C7H16,2-methylh C8H8,styrene   
 C8H10,ethylbenz C8H16,1-octene  C8H17,n-octyl   C8H18,n-octane  C8H18,isooctane
 C9H19,n-nonyl   C10H8,naphthale C10H21,n-decyl  C12H9,o-bipheny C12H10,biphenyl
 HCO             HCCO            HO2             HCHO,formaldehy HCOOH          
 H2O2            (HCOOH)2        O3              C(gr)           H2O(cr)        
 H2O(L)         

 NOTE. WEIGHT FRACTION OF FUEL IN TOTAL FUELS AND OF OXIDANT IN TOTAL OXIDANTS






 WARNING!!  ASSIGNED pip =   0.00000 IS NOT PERMITTED
 TO BE LESS THAN  Pinj/Pc =  1.00722. POINT OMITTED (ROCKET)





              THEORETICAL ROCKET PERFORMANCE ASSUMING EQUILIBRIUM

            COMPOSITION DURING EXPANSION FROM FINITE AREA COMBUSTOR

 Pin =    87.0 PSIA
 Ac/At =  7.6100      Pinj/Pinf =  1.003590
 CASE =                

             REACTANT                    WT FRACTION      ENERGY      TEMP
                                          (SEE NOTE)     KJ/KG-MOL      K  
 OXIDANT     O2(L)                        1.0000000    -12979.000     90.170
 FUEL        PMMA                         1.0000000   -442140.000    293.150

 O/F=    1.05432  %FUEL= 48.677908  R,EQ.RATIO= 1.628403  PHI,EQ.RATIO= 1.818904

                 INJECTOR  COMB END  THROAT
 Pinj/P            1.0000   1.0072   1.7702
 P, BAR            6.0000   5.9570   3.3895
 T, K             2846.36  2844.81  2627.61
 RHO, KG/CU M    5.7188-1 5.6811-1 3.5206-1
 H, KJ/KG        -2357.92 -2361.71 -2928.71
 U, KJ/KG        -3407.09 -3410.28 -3891.48
 G, KJ/KG        -35840.2 -35829.5 -33841.2
 S, KJ/(KG)(K)    11.7632  11.7645  11.7645

 M, (1/n)          22.557   22.558   22.692
 (dLV/dLP)t      -1.00684 -1.00683 -1.00361
 (dLV/dLT)p        1.1453   1.1450   1.0819
 Cp, KJ/(KG)(K)    3.1538   3.1519   2.6763
 GAMMAs            1.1716   1.1716   1.1857
 SON VEL,M/SEC     1108.7   1108.4   1068.4
 MACH NUMBER        0.000    0.078    1.000

 PERFORMANCE PARAMETERS

 Ae/At                      7.6100  1.00000
 CSTAR, M/SEC               1589.4   1589.4
 CF                         0.0547   0.6722
 Ivac, M/SEC               12138.6   1969.5
 Isp, M/SEC                   87.0   1068.4


 MOLE FRACTIONS

 *CO              0.43756  0.43754  0.43552
 *CO2             0.11081  0.11085  0.11615
 *H               0.01536  0.01534  0.00929
 *H2              0.15289  0.15292  0.15839
 H2O              0.27374  0.27375  0.27618
 *O               0.00050  0.00050  0.00014
 *OH              0.00876  0.00874  0.00423
 *O2              0.00036  0.00036  0.00010

  * THERMODYNAMIC PROPERTIES FITTED TO 20000.K

    PRODUCTS WHICH WERE CONSIDERED BUT WHOSE MOLE FRACTIONS
    WERE LESS THAN 5.000000E-06 FOR ALL ASSIGNED CONDITIONS

 *C              *CH             CH2             CH3             CH2OH          
 CH3O            CH4             CH3OH           CH3OOH          COOH           
 *C2             C2H             C2H2,acetylene  C2H2,vinylidene CH2CO,ketene   
 O(CH)2O         HO(CO)2OH       C2H3,vinyl      CH3CO,acetyl    C2H4           
 C2H4O,ethylen-o CH3CHO,ethanal  CH3COOH         OHCH2COOH       C2H5           
 C2H6            C2H5OH          CH3OCH3         CH3O2CH3        C2O            
 *C3             C3H3,1-propynl  C3H3,2-propynl  C3H4,allene     C3H4,propyne   
 C3H4,cyclo-     C3H5,allyl      C3H6,propylene  C3H6,cyclo-     C3H6O,propylox 
 C3H6O,acetone   C3H6O,propanal  C3H7,n-propyl   C3H7,i-propyl   C3H8           
 C3H8O,1propanol C3H8O,2propanol C3O2            *C4             C4H2,butadiyne 
 C4H4,1,3-cyclo- C4H6,butadiene  C4H6,1butyne    C4H6,2butyne    C4H6,cyclo-    
 C4H8,1-butene   C4H8,cis2-buten C4H8,tr2-butene C4H8,isobutene  C4H8,cyclo-    
 (CH3COOH)2      C4H9,n-butyl    C4H9,i-butyl    C4H9,s-butyl    C4H9,t-butyl   
 C4H10,n-butane  C4H10,isobutane *C5             C5H6,1,3cyclo-  C5H8,cyclo-    
 C5H10,1-pentene C5H10,cyclo-    C5H11,pentyl    C5H11,t-pentyl  C5H12,n-pentane
 C5H12,i-pentane CH3C(CH3)2CH3   C6H2            C6H5,phenyl     C6H5O,phenoxy  
 C6H6            C6H5OH,phenol   C6H10,cyclo-    C6H12,1-hexene  C6H12,cyclo-   
 C6H13,n-hexyl   C6H14,n-hexane  C7H7,benzyl     C7H8            C7H8O,cresol-mx
 C7H14,1-heptene C7H15,n-heptyl  C7H16,n-heptane C7H16,2-methylh C8H8,styrene   
 C8H10,ethylbenz C8H16,1-octene  C8H17,n-octyl   C8H18,n-octane  C8H18,isooctane
 C9H19,n-nonyl   C10H8,naphthale C10H21,n-decyl  C12H9,o-bipheny C12H10,biphenyl
 HCO             HCCO            HO2             HCHO,formaldehy HCOOH          
 H2O2            (HCOOH)2        O3              C(gr)           H2O(cr)        
 H2O(L)         

 NOTE. WEIGHT FRACTION OF FUEL IN TOTAL FUELS AND OF OXIDANT IN TOTAL OXIDANTS






 WARNING!!  ASSIGNED pip =   0.00000 IS NOT PERMITTED
 TO BE LESS THAN  Pinj/Pc =  1.00722. POINT OMITTED (ROCKET)





              THEORETICAL ROCKET PERFORMANCE ASSUMING EQUILIBRIUM

            COMPOSITION DURING EXPANSION FROM FINITE AREA COMBUSTOR

 Pin =    87.0 PSIA
 Ac/At =  7.6100      Pinj/Pinf =  1.003590
 CASE =                

             REACTANT                    WT FRACTION      ENERGY      TEMP
                                          (SEE NOTE)     KJ/KG-MOL      K  
 OXIDANT     O2(L)                        1.0000000    -12979.000     90.170
 FUEL        PMMA                         1.0000000   -442140.000    293.150

 O/F=    1.05432  %FUEL= 48.677908  R,EQ.RATIO= 1.628403  PHI,EQ.RATIO= 1.818904

                 INJECTOR  COMB END  THROAT
 Pinj/P            1.0000   1.0072   1.7702
 P, BAR            6.0000   5.9570   3.3895
 T, K             2846.36  2844.81  2627.61
 RHO, KG/CU M    5.7188-1 5.6811-1 3.5206-1
 H, KJ/KG        -2357.92 -2361.71 -2928.71
 U, KJ/KG        -3407.09 -3410.28 -3891.48
 G, KJ/KG        -35840.2 -35829.5 -33841.2
 S, KJ/(KG)(K)    11.7632  11.7645  11.7645

 M, (1/n)          22.557   22.558   22.692
 (dLV/dLP)t      -1.00684 -1.00683 -1.00361
 (dLV/dLT)p        1.1453   1.1450   1.0819
 Cp, KJ/(KG)(K)    3.1538   3.1519   2.6763
 GAMMAs            1.1716   1.1716   1.1857
 SON VEL,M/SEC     1108.7   1108.4   1068.4
 MACH NUMBER        0.000    0.078    1.000

 PERFORMANCE PARAMETERS

 Ae/At                      7.6100  1.00000
 CSTAR, M/SEC               1589.4   1589.4
 CF                         0.0547   0.6722
 Ivac, M/SEC               12138.6   1969.5
 Isp, M/SEC                   87.0   1068.4


 MOLE FRACTIONS

 *CO              0.43756  0.43754  0.43552
 *CO2             0.11081  0.11085  0.11615
 *H               0.01536  0.01534  0.00929
 *H2              0.15289  0.15292  0.15839
 H2O              0.27374  0.27375  0.27618
 *O               0.00050  0.00050  0.00014
 *OH              0.00876  0.00874  0.00423
 *O2              0.00036  0.00036  0.00010

  * THERMODYNAMIC PROPERTIES FITTED TO 20000.K

    PRODUCTS WHICH WERE CONSIDERED BUT WHOSE MOLE FRACTIONS
    WERE LESS THAN 5.000000E-06 FOR ALL ASSIGNED CONDITIONS

 *C              *CH             CH2             CH3             CH2OH          
 CH3O            CH4             CH3OH           CH3OOH          COOH           
 *C2             C2H             C2H2,acetylene  C2H2,vinylidene CH2CO,ketene   
 O(CH)2O         HO(CO)2OH       C2H3,vinyl      CH3CO,acetyl    C2H4           
 C2H4O,ethylen-o CH3CHO,ethanal  CH3COOH         OHCH2COOH       C2H5           
 C2H6            C2H5OH          CH3OCH3         CH3O2CH3        C2O            
 *C3             C3H3,1-propynl  C3H3,2-propynl  C3H4,allene     C3H4,propyne   
 C3H4,cyclo-     C3H5,allyl      C3H6,propylene  C3H6,cyclo-     C3H6O,propylox 
 C3H6O,acetone   C3H6O,propanal  C3H7,n-propyl   C3H7,i-propyl   C3H8           
 C3H8O,1propanol C3H8O,2propanol C3O2            *C4             C4H2,butadiyne 
 C4H4,1,3-cyclo- C4H6,butadiene  C4H6,1butyne    C4H6,2butyne    C4H6,cyclo-    
 C4H8,1-butene   C4H8,cis2-buten C4H8,tr2-butene C4H8,isobutene  C4H8,cyclo-    
 (CH3COOH)2      C4H9,n-butyl    C4H9,i-butyl    C4H9,s-butyl    C4H9,t-butyl   
 C4H10,n-butane  C4H10,isobutane *C5             C5H6,1,3cyclo-  C5H8,cyclo-    
 C5H10,1-pentene C5H10,cyclo-    C5H11,pentyl    C5H11,t-pentyl  C5H12,n-pentane
 C5H12,i-pentane CH3C(CH3)2CH3   C6H2            C6H5,phenyl     C6H5O,phenoxy  
 C6H6            C6H5OH,phenol   C6H10,cyclo-    C6H12,1-hexene  C6H12,cyclo-   
 C6H13,n-hexyl   C6H14,n-hexane  C7H7,benzyl     C7H8            C7H8O,cresol-mx
 C7H14,1-heptene C7H15,n-heptyl  C7H16,n-heptane C7H16,2-methylh C8H8,styrene   
 C8H10,ethylbenz C8H16,1-octene  C8H17,n-octyl   C8H18,n-octane  C8H18,isooctane
 C9H19,n-nonyl   C10H8,naphthale C10H21,n-decyl  C12H9,o-bipheny C12H10,biphenyl
 HCO             HCCO            HO2             HCHO,formaldehy HCOOH          
 H2O2            (HCOOH)2        O3              C(gr)           H2O(cr)        
 H2O(L)         

 NOTE. WEIGHT FRACTION OF FUEL IN TOTAL FUELS AND OF OXIDANT IN TOTAL OXIDANTS






 WARNING!!  ASSIGNED pip =   0.00000 IS NOT PERMITTED
 TO BE LESS THAN  Pinj/Pc =  1.00722. POINT OMITTED (ROCKET)





              THEORETICAL ROCKET PERFORMANCE ASSUMING EQUILIBRIUM

            COMPOSITION DURING EXPANSION FROM FINITE AREA COMBUSTOR

 Pin =    87.0 PSIA
 Ac/At =  7.6100      Pinj/Pinf =  1.003590
 CASE =                

             REACTANT                    WT FRACTION      ENERGY      TEMP
                                          (SEE NOTE)     KJ/KG-MOL      K  
 OXIDANT     O2(L)                        1.0000000    -12979.000     90.170
 FUEL        PMMA                         1.0000000   -442140.000    293.150

 O/F=    1.05432  %FUEL= 48.677908  R,EQ.RATIO= 1.628403  PHI,EQ.RATIO= 1.818904

                 INJECTOR  COMB END  THROAT
 Pinj/P            1.0000   1.0072   1.7702
 P, BAR            6.0000   5.9570   3.3895
 T, K             2846.36  2844.81  2627.61
 RHO, KG/CU M    5.7188-1 5.6811-1 3.5206-1
 H, KJ/KG        -2357.92 -2361.71 -2928.71
 U, KJ/KG        -3407.09 -3410.28 -3891.48
 G, KJ/KG        -35840.2 -35829.5 -33841.2
 S, KJ/(KG)(K)    11.7632  11.7645  11.7645

 M, (1/n)          22.557   22.558   22.692
 (dLV/dLP)t      -1.00684 -1.00683 -1.00361
 (dLV/dLT)p        1.1453   1.1450   1.0819
 Cp, KJ/(KG)(K)    3.1538   3.1519   2.6763
 GAMMAs            1.1716   1.1716   1.1857
 SON VEL,M/SEC     1108.7   1108.4   1068.4
 MACH NUMBER        0.000    0.078    1.000

 PERFORMANCE PARAMETERS

 Ae/At                      7.6100  1.00000
 CSTAR, M/SEC               1589.4   1589.4
 CF                         0.0547   0.6722
 Ivac, M/SEC               12138.6   1969.5
 Isp, M/SEC                   87.0   1068.4


 MOLE FRACTIONS

 *CO              0.43756  0.43754  0.43552
 *CO2             0.11081  0.11085  0.11615
 *H               0.01536  0.01534  0.00929
 *H2              0.15289  0.15292  0.15839
 H2O              0.27374  0.27375  0.27618
 *O               0.00050  0.00050  0.00014
 *OH              0.00876  0.00874  0.00423
 *O2              0.00036  0.00036  0.00010

  * THERMODYNAMIC PROPERTIES FITTED TO 20000.K

    PRODUCTS WHICH WERE CONSIDERED BUT WHOSE MOLE FRACTIONS
    WERE LESS THAN 5.000000E-06 FOR ALL ASSIGNED CONDITIONS

 *C              *CH             CH2             CH3             CH2OH          
 CH3O            CH4             CH3OH           CH3OOH          COOH           
 *C2             C2H             C2H2,acetylene  C2H2,vinylidene CH2CO,ketene   
 O(CH)2O         HO(CO)2OH       C2H3,vinyl      CH3CO,acetyl    C2H4           
 C2H4O,ethylen-o CH3CHO,ethanal  CH3COOH         OHCH2COOH       C2H5           
 C2H6            C2H5OH          CH3OCH3         CH3O2CH3        C2O            
 *C3             C3H3,1-propynl  C3H3,2-propynl  C3H4,allene     C3H4,propyne   
 C3H4,cyclo-     C3H5,allyl      C3H6,propylene  C3H6,cyclo-     C3H6O,propylox 
 C3H6O,acetone   C3H6O,propanal  C3H7,n-propyl   C3H7,i-propyl   C3H8           
 C3H8O,1propanol C3H8O,2propanol C3O2            *C4             C4H2,butadiyne 
 C4H4,1,3-cyclo- C4H6,butadiene  C4H6,1butyne    C4H6,2butyne    C4H6,cyclo-    
 C4H8,1-butene   C4H8,cis2-buten C4H8,tr2-butene C4H8,isobutene  C4H8,cyclo-    
 (CH3COOH)2      C4H9,n-butyl    C4H9,i-butyl    C4H9,s-butyl    C4H9,t-butyl   
 C4H10,n-butane  C4H10,isobutane *C5             C5H6,1,3cyclo-  C5H8,cyclo-    
 C5H10,1-pentene C5H10,cyclo-    C5H11,pentyl    C5H11,t-pentyl  C5H12,n-pentane
 C5H12,i-pentane CH3C(CH3)2CH3   C6H2            C6H5,phenyl     C6H5O,phenoxy  
 C6H6            C6H5OH,phenol   C6H10,cyclo-    C6H12,1-hexene  C6H12,cyclo-   
 C6H13,n-hexyl   C6H14,n-hexane  C7H7,benzyl     C7H8            C7H8O,cresol-mx
 C7H14,1-heptene C7H15,n-heptyl  C7H16,n-heptane C7H16,2-methylh C8H8,styrene   
 C8H10,ethylbenz C8H16,1-octene  C8H17,n-octyl   C8H18,n-octane  C8H18,isooctane
 C9H19,n-nonyl   C10H8,naphthale C10H21,n-decyl  C12H9,o-bipheny C12H10,biphenyl
 HCO             HCCO            HO2             HCHO,formaldehy HCOOH          
 H2O2            (HCOOH)2        O3              C(gr)           H2O(cr)        
 H2O(L)         

 NOTE. WEIGHT FRACTION OF FUEL IN TOTAL FUELS AND OF OXIDANT IN TOTAL OXIDANTS






 WARNING!!  ASSIGNED pip =   0.00000 IS NOT PERMITTED
 TO BE LESS THAN  Pinj/Pc =  1.00722. POINT OMITTED (ROCKET)





              THEORETICAL ROCKET PERFORMANCE ASSUMING EQUILIBRIUM

            COMPOSITION DURING EXPANSION FROM FINITE AREA COMBUSTOR

 Pin =    87.0 PSIA
 Ac/At =  7.6100      Pinj/Pinf =  1.003590
 CASE =                

             REACTANT                    WT FRACTION      ENERGY      TEMP
                                          (SEE NOTE)     KJ/KG-MOL      K  
 OXIDANT     O2(L)                        1.0000000    -12979.000     90.170
 FUEL        PMMA                         1.0000000   -442140.000    293.150

 O/F=    1.05432  %FUEL= 48.677908  R,EQ.RATIO= 1.628403  PHI,EQ.RATIO= 1.818904

                 INJECTOR  COMB END  THROAT
 Pinj/P            1.0000   1.0072   1.7702
 P, BAR            6.0000   5.9570   3.3895
 T, K             2846.36  2844.81  2627.61
 RHO, KG/CU M    5.7188-1 5.6811-1 3.5206-1
 H, KJ/KG        -2357.92 -2361.71 -2928.71
 U, KJ/KG        -3407.09 -3410.28 -3891.48
 G, KJ/KG        -35840.2 -35829.5 -33841.2
 S, KJ/(KG)(K)    11.7632  11.7645  11.7645

 M, (1/n)          22.557   22.558   22.692
 (dLV/dLP)t      -1.00684 -1.00683 -1.00361
 (dLV/dLT)p        1.1453   1.1450   1.0819
 Cp, KJ/(KG)(K)    3.1538   3.1519   2.6763
 GAMMAs            1.1716   1.1716   1.1857
 SON VEL,M/SEC     1108.7   1108.4   1068.4
 MACH NUMBER        0.000    0.078    1.000

 PERFORMANCE PARAMETERS

 Ae/At                      7.6100  1.00000
 CSTAR, M/SEC               1589.4   1589.4
 CF                         0.0547   0.6722
 Ivac, M/SEC               12138.6   1969.5
 Isp, M/SEC                   87.0   1068.4


 MOLE FRACTIONS

 *CO              0.43756  0.43754  0.43552
 *CO2             0.11081  0.11085  0.11615
 *H               0.01536  0.01534  0.00929
 *H2              0.15289  0.15292  0.15839
 H2O              0.27374  0.27375  0.27618
 *O               0.00050  0.00050  0.00014
 *OH              0.00876  0.00874  0.00423
 *O2              0.00036  0.00036  0.00010

  * THERMODYNAMIC PROPERTIES FITTED TO 20000.K

    PRODUCTS WHICH WERE CONSIDERED BUT WHOSE MOLE FRACTIONS
    WERE LESS THAN 5.000000E-06 FOR ALL ASSIGNED CONDITIONS

 *C              *CH             CH2             CH3             CH2OH          
 CH3O            CH4             CH3OH           CH3OOH          COOH           
 *C2             C2H             C2H2,acetylene  C2H2,vinylidene CH2CO,ketene   
 O(CH)2O         HO(CO)2OH       C2H3,vinyl      CH3CO,acetyl    C2H4           
 C2H4O,ethylen-o CH3CHO,ethanal  CH3COOH         OHCH2COOH       C2H5           
 C2H6            C2H5OH          CH3OCH3         CH3O2CH3        C2O            
 *C3             C3H3,1-propynl  C3H3,2-propynl  C3H4,allene     C3H4,propyne   
 C3H4,cyclo-     C3H5,allyl      C3H6,propylene  C3H6,cyclo-     C3H6O,propylox 
 C3H6O,acetone   C3H6O,propanal  C3H7,n-propyl   C3H7,i-propyl   C3H8           
 C3H8O,1propanol C3H8O,2propanol C3O2            *C4             C4H2,butadiyne 
 C4H4,1,3-cyclo- C4H6,butadiene  C4H6,1butyne    C4H6,2butyne    C4H6,cyclo-    
 C4H8,1-butene   C4H8,cis2-buten C4H8,tr2-butene C4H8,isobutene  C4H8,cyclo-    
 (CH3COOH)2      C4H9,n-butyl    C4H9,i-butyl    C4H9,s-butyl    C4H9,t-butyl   
 C4H10,n-butane  C4H10,isobutane *C5             C5H6,1,3cyclo-  C5H8,cyclo-    
 C5H10,1-pentene C5H10,cyclo-    C5H11,pentyl    C5H11,t-pentyl  C5H12,n-pentane
 C5H12,i-pentane CH3C(CH3)2CH3   C6H2            C6H5,phenyl     C6H5O,phenoxy  
 C6H6            C6H5OH,phenol   C6H10,cyclo-    C6H12,1-hexene  C6H12,cyclo-   
 C6H13,n-hexyl   C6H14,n-hexane  C7H7,benzyl     C7H8            C7H8O,cresol-mx
 C7H14,1-heptene C7H15,n-heptyl  C7H16,n-heptane C7H16,2-methylh C8H8,styrene   
 C8H10,ethylbenz C8H16,1-octene  C8H17,n-octyl   C8H18,n-octane  C8H18,isooctane
 C9H19,n-nonyl   C10H8,naphthale C10H21,n-decyl  C12H9,o-bipheny C12H10,biphenyl
 HCO             HCCO            HO2             HCHO,formaldehy HCOOH          
 H2O2            (HCOOH)2        O3              C(gr)           H2O(cr)        
 H2O(L)         

 NOTE. WEIGHT FRACTION OF FUEL IN TOTAL FUELS AND OF OXIDANT IN TOTAL OXIDANTS






 WARNING!!  ASSIGNED pip =   0.00000 IS NOT PERMITTED
 TO BE LESS THAN  Pinj/Pc =  1.00722. POINT OMITTED (ROCKET)





              THEORETICAL ROCKET PERFORMANCE ASSUMING EQUILIBRIUM

            COMPOSITION DURING EXPANSION FROM FINITE AREA COMBUSTOR

 Pin =    87.0 PSIA
 Ac/At =  7.6100      Pinj/Pinf =  1.003590
 CASE =                

             REACTANT                    WT FRACTION      ENERGY      TEMP
                                          (SEE NOTE)     KJ/KG-MOL      K  
 OXIDANT     O2(L)                        1.0000000    -12979.000     90.170
 FUEL        PMMA                         1.0000000   -442140.000    293.150

 O/F=    1.05432  %FUEL= 48.677908  R,EQ.RATIO= 1.628403  PHI,EQ.RATIO= 1.818904

                 INJECTOR  COMB END  THROAT
 Pinj/P            1.0000   1.0072   1.7702
 P, BAR            6.0000   5.9570   3.3895
 T, K             2846.36  2844.81  2627.61
 RHO, KG/CU M    5.7188-1 5.6811-1 3.5206-1
 H, KJ/KG        -2357.92 -2361.71 -2928.71
 U, KJ/KG        -3407.09 -3410.28 -3891.48
 G, KJ/KG        -35840.2 -35829.5 -33841.2
 S, KJ/(KG)(K)    11.7632  11.7645  11.7645

 M, (1/n)          22.557   22.558   22.692
 (dLV/dLP)t      -1.00684 -1.00683 -1.00361
 (dLV/dLT)p        1.1453   1.1450   1.0819
 Cp, KJ/(KG)(K)    3.1538   3.1519   2.6763
 GAMMAs            1.1716   1.1716   1.1857
 SON VEL,M/SEC     1108.7   1108.4   1068.4
 MACH NUMBER        0.000    0.078    1.000

 PERFORMANCE PARAMETERS

 Ae/At                      7.6100  1.00000
 CSTAR, M/SEC               1589.4   1589.4
 CF                         0.0547   0.6722
 Ivac, M/SEC               12138.6   1969.5
 Isp, M/SEC                   87.0   1068.4


 MOLE FRACTIONS

 *CO              0.43756  0.43754  0.43552
 *CO2             0.11081  0.11085  0.11615
 *H               0.01536  0.01534  0.00929
 *H2              0.15289  0.15292  0.15839
 H2O              0.27374  0.27375  0.27618
 *O               0.00050  0.00050  0.00014
 *OH              0.00876  0.00874  0.00423
 *O2              0.00036  0.00036  0.00010

  * THERMODYNAMIC PROPERTIES FITTED TO 20000.K

    PRODUCTS WHICH WERE CONSIDERED BUT WHOSE MOLE FRACTIONS
    WERE LESS THAN 5.000000E-06 FOR ALL ASSIGNED CONDITIONS

 *C              *CH             CH2             CH3             CH2OH          
 CH3O            CH4             CH3OH           CH3OOH          COOH           
 *C2             C2H             C2H2,acetylene  C2H2,vinylidene CH2CO,ketene   
 O(CH)2O         HO(CO)2OH       C2H3,vinyl      CH3CO,acetyl    C2H4           
 C2H4O,ethylen-o CH3CHO,ethanal  CH3COOH         OHCH2COOH       C2H5           
 C2H6            C2H5OH          CH3OCH3         CH3O2CH3        C2O            
 *C3             C3H3,1-propynl  C3H3,2-propynl  C3H4,allene     C3H4,propyne   
 C3H4,cyclo-     C3H5,allyl      C3H6,propylene  C3H6,cyclo-     C3H6O,propylox 
 C3H6O,acetone   C3H6O,propanal  C3H7,n-propyl   C3H7,i-propyl   C3H8           
 C3H8O,1propanol C3H8O,2propanol C3O2            *C4             C4H2,butadiyne 
 C4H4,1,3-cyclo- C4H6,butadiene  C4H6,1butyne    C4H6,2butyne    C4H6,cyclo-    
 C4H8,1-butene   C4H8,cis2-buten C4H8,tr2-butene C4H8,isobutene  C4H8,cyclo-    
 (CH3COOH)2      C4H9,n-butyl    C4H9,i-butyl    C4H9,s-butyl    C4H9,t-butyl   
 C4H10,n-butane  C4H10,isobutane *C5             C5H6,1,3cyclo-  C5H8,cyclo-    
 C5H10,1-pentene C5H10,cyclo-    C5H11,pentyl    C5H11,t-pentyl  C5H12,n-pentane
 C5H12,i-pentane CH3C(CH3)2CH3   C6H2            C6H5,phenyl     C6H5O,phenoxy  
 C6H6            C6H5OH,phenol   C6H10,cyclo-    C6H12,1-hexene  C6H12,cyclo-   
 C6H13,n-hexyl   C6H14,n-hexane  C7H7,benzyl     C7H8            C7H8O,cresol-mx
 C7H14,1-heptene C7H15,n-heptyl  C7H16,n-heptane C7H16,2-methylh C8H8,styrene   
 C8H10,ethylbenz C8H16,1-octene  C8H17,n-octyl   C8H18,n-octane  C8H18,isooctane
 C9H19,n-nonyl   C10H8,naphthale C10H21,n-decyl  C12H9,o-bipheny C12H10,biphenyl
 HCO             HCCO            HO2             HCHO,formaldehy HCOOH          
 H2O2            (HCOOH)2        O3              C(gr)           H2O(cr)        
 H2O(L)         

 NOTE. WEIGHT FRACTION OF FUEL IN TOTAL FUELS AND OF OXIDANT IN TOTAL OXIDANTS






 WARNING!!  ASSIGNED pip =   0.00000 IS NOT PERMITTED
 TO BE LESS THAN  Pinj/Pc =  1.00722. POINT OMITTED (ROCKET)





              THEORETICAL ROCKET PERFORMANCE ASSUMING EQUILIBRIUM

            COMPOSITION DURING EXPANSION FROM FINITE AREA COMBUSTOR

 Pin =    87.0 PSIA
 Ac/At =  7.6100      Pinj/Pinf =  1.003590
 CASE =                

             REACTANT                    WT FRACTION      ENERGY      TEMP
                                          (SEE NOTE)     KJ/KG-MOL      K  
 OXIDANT     O2(L)                        1.0000000    -12979.000     90.170
 FUEL        PMMA                         1.0000000   -442140.000    293.150

 O/F=    1.05432  %FUEL= 48.677908  R,EQ.RATIO= 1.628403  PHI,EQ.RATIO= 1.818904

                 INJECTOR  COMB END  THROAT
 Pinj/P            1.0000   1.0072   1.7702
 P, BAR            6.0000   5.9570   3.3895
 T, K             2846.36  2844.81  2627.61
 RHO, KG/CU M    5.7188-1 5.6811-1 3.5206-1
 H, KJ/KG        -2357.92 -2361.71 -2928.71
 U, KJ/KG        -3407.09 -3410.28 -3891.48
 G, KJ/KG        -35840.2 -35829.5 -33841.2
 S, KJ/(KG)(K)    11.7632  11.7645  11.7645

 M, (1/n)          22.557   22.558   22.692
 (dLV/dLP)t      -1.00684 -1.00683 -1.00361
 (dLV/dLT)p        1.1453   1.1450   1.0819
 Cp, KJ/(KG)(K)    3.1538   3.1519   2.6763
 GAMMAs            1.1716   1.1716   1.1857
 SON VEL,M/SEC     1108.7   1108.4   1068.4
 MACH NUMBER        0.000    0.078    1.000

 PERFORMANCE PARAMETERS

 Ae/At                      7.6100  1.00000
 CSTAR, M/SEC               1589.4   1589.4
 CF                         0.0547   0.6722
 Ivac, M/SEC               12138.6   1969.5
 Isp, M/SEC                   87.0   1068.4


 MOLE FRACTIONS

 *CO              0.43756  0.43754  0.43552
 *CO2             0.11081  0.11085  0.11615
 *H               0.01536  0.01534  0.00929
 *H2              0.15289  0.15292  0.15839
 H2O              0.27374  0.27375  0.27618
 *O               0.00050  0.00050  0.00014
 *OH              0.00876  0.00874  0.00423
 *O2              0.00036  0.00036  0.00010

  * THERMODYNAMIC PROPERTIES FITTED TO 20000.K

    PRODUCTS WHICH WERE CONSIDERED BUT WHOSE MOLE FRACTIONS
    WERE LESS THAN 5.000000E-06 FOR ALL ASSIGNED CONDITIONS

 *C              *CH             CH2             CH3             CH2OH          
 CH3O            CH4             CH3OH           CH3OOH          COOH           
 *C2             C2H             C2H2,acetylene  C2H2,vinylidene CH2CO,ketene   
 O(CH)2O         HO(CO)2OH       C2H3,vinyl      CH3CO,acetyl    C2H4           
 C2H4O,ethylen-o CH3CHO,ethanal  CH3COOH         OHCH2COOH       C2H5           
 C2H6            C2H5OH          CH3OCH3         CH3O2CH3        C2O            
 *C3             C3H3,1-propynl  C3H3,2-propynl  C3H4,allene     C3H4,propyne   
 C3H4,cyclo-     C3H5,allyl      C3H6,propylene  C3H6,cyclo-     C3H6O,propylox 
 C3H6O,acetone   C3H6O,propanal  C3H7,n-propyl   C3H7,i-propyl   C3H8           
 C3H8O,1propanol C3H8O,2propanol C3O2            *C4             C4H2,butadiyne 
 C4H4,1,3-cyclo- C4H6,butadiene  C4H6,1butyne    C4H6,2butyne    C4H6,cyclo-    
 C4H8,1-butene   C4H8,cis2-buten C4H8,tr2-butene C4H8,isobutene  C4H8,cyclo-    
 (CH3COOH)2      C4H9,n-butyl    C4H9,i-butyl    C4H9,s-butyl    C4H9,t-butyl   
 C4H10,n-butane  C4H10,isobutane *C5             C5H6,1,3cyclo-  C5H8,cyclo-    
 C5H10,1-pentene C5H10,cyclo-    C5H11,pentyl    C5H11,t-pentyl  C5H12,n-pentane
 C5H12,i-pentane CH3C(CH3)2CH3   C6H2            C6H5,phenyl     C6H5O,phenoxy  
 C6H6            C6H5OH,phenol   C6H10,cyclo-    C6H12,1-hexene  C6H12,cyclo-   
 C6H13,n-hexyl   C6H14,n-hexane  C7H7,benzyl     C7H8            C7H8O,cresol-mx
 C7H14,1-heptene C7H15,n-heptyl  C7H16,n-heptane C7H16,2-methylh C8H8,styrene   
 C8H10,ethylbenz C8H16,1-octene  C8H17,n-octyl   C8H18,n-octane  C8H18,isooctane
 C9H19,n-nonyl   C10H8,naphthale C10H21,n-decyl  C12H9,o-bipheny C12H10,biphenyl
 HCO             HCCO            HO2             HCHO,formaldehy HCOOH          
 H2O2            (HCOOH)2        O3              C(gr)           H2O(cr)        
 H2O(L)         

 NOTE. WEIGHT FRACTION OF FUEL IN TOTAL FUELS AND OF OXIDANT IN TOTAL OXIDANTS






 WARNING!!  ASSIGNED pip =   0.00000 IS NOT PERMITTED
 TO BE LESS THAN  Pinj/Pc =  1.00722. POINT OMITTED (ROCKET)





              THEORETICAL ROCKET PERFORMANCE ASSUMING EQUILIBRIUM

            COMPOSITION DURING EXPANSION FROM FINITE AREA COMBUSTOR

 Pin =    87.0 PSIA
 Ac/At =  7.6100      Pinj/Pinf =  1.003590
 CASE =                

             REACTANT                    WT FRACTION      ENERGY      TEMP
                                          (SEE NOTE)     KJ/KG-MOL      K  
 OXIDANT     O2(L)                        1.0000000    -12979.000     90.170
 FUEL        PMMA                         1.0000000   -442140.000    293.150

 O/F=    1.05432  %FUEL= 48.677908  R,EQ.RATIO= 1.628403  PHI,EQ.RATIO= 1.818904

                 INJECTOR  COMB END  THROAT
 Pinj/P            1.0000   1.0072   1.7702
 P, BAR            6.0000   5.9570   3.3895
 T, K             2846.36  2844.81  2627.61
 RHO, KG/CU M    5.7188-1 5.6811-1 3.5206-1
 H, KJ/KG        -2357.92 -2361.71 -2928.71
 U, KJ/KG        -3407.09 -3410.28 -3891.48
 G, KJ/KG        -35840.2 -35829.5 -33841.2
 S, KJ/(KG)(K)    11.7632  11.7645  11.7645

 M, (1/n)          22.557   22.558   22.692
 (dLV/dLP)t      -1.00684 -1.00683 -1.00361
 (dLV/dLT)p        1.1453   1.1450   1.0819
 Cp, KJ/(KG)(K)    3.1538   3.1519   2.6763
 GAMMAs            1.1716   1.1716   1.1857
 SON VEL,M/SEC     1108.7   1108.4   1068.4
 MACH NUMBER        0.000    0.078    1.000

 PERFORMANCE PARAMETERS

 Ae/At                      7.6100  1.00000
 CSTAR, M/SEC               1589.4   1589.4
 CF                         0.0547   0.6722
 Ivac, M/SEC               12138.6   1969.5
 Isp, M/SEC                   87.0   1068.4


 MOLE FRACTIONS

 *CO              0.43756  0.43754  0.43552
 *CO2             0.11081  0.11085  0.11615
 *H               0.01536  0.01534  0.00929
 *H2              0.15289  0.15292  0.15839
 H2O              0.27374  0.27375  0.27618
 *O               0.00050  0.00050  0.00014
 *OH              0.00876  0.00874  0.00423
 *O2              0.00036  0.00036  0.00010

  * THERMODYNAMIC PROPERTIES FITTED TO 20000.K

    PRODUCTS WHICH WERE CONSIDERED BUT WHOSE MOLE FRACTIONS
    WERE LESS THAN 5.000000E-06 FOR ALL ASSIGNED CONDITIONS

 *C              *CH             CH2             CH3             CH2OH          
 CH3O            CH4             CH3OH           CH3OOH          COOH           
 *C2             C2H             C2H2,acetylene  C2H2,vinylidene CH2CO,ketene   
 O(CH)2O         HO(CO)2OH       C2H3,vinyl      CH3CO,acetyl    C2H4           
 C2H4O,ethylen-o CH3CHO,ethanal  CH3COOH         OHCH2COOH       C2H5           
 C2H6            C2H5OH          CH3OCH3         CH3O2CH3        C2O            
 *C3             C3H3,1-propynl  C3H3,2-propynl  C3H4,allene     C3H4,propyne   
 C3H4,cyclo-     C3H5,allyl      C3H6,propylene  C3H6,cyclo-     C3H6O,propylox 
 C3H6O,acetone   C3H6O,propanal  C3H7,n-propyl   C3H7,i-propyl   C3H8           
 C3H8O,1propanol C3H8O,2propanol C3O2            *C4             C4H2,butadiyne 
 C4H4,1,3-cyclo- C4H6,butadiene  C4H6,1butyne    C4H6,2butyne    C4H6,cyclo-    
 C4H8,1-butene   C4H8,cis2-buten C4H8,tr2-butene C4H8,isobutene  C4H8,cyclo-    
 (CH3COOH)2      C4H9,n-butyl    C4H9,i-butyl    C4H9,s-butyl    C4H9,t-butyl   
 C4H10,n-butane  C4H10,isobutane *C5             C5H6,1,3cyclo-  C5H8,cyclo-    
 C5H10,1-pentene C5H10,cyclo-    C5H11,pentyl    C5H11,t-pentyl  C5H12,n-pentane
 C5H12,i-pentane CH3C(CH3)2CH3   C6H2            C6H5,phenyl     C6H5O,phenoxy  
 C6H6            C6H5OH,phenol   C6H10,cyclo-    C6H12,1-hexene  C6H12,cyclo-   
 C6H13,n-hexyl   C6H14,n-hexane  C7H7,benzyl     C7H8            C7H8O,cresol-mx
 C7H14,1-heptene C7H15,n-heptyl  C7H16,n-heptane C7H16,2-methylh C8H8,styrene   
 C8H10,ethylbenz C8H16,1-octene  C8H17,n-octyl   C8H18,n-octane  C8H18,isooctane
 C9H19,n-nonyl   C10H8,naphthale C10H21,n-decyl  C12H9,o-bipheny C12H10,biphenyl
 HCO             HCCO            HO2             HCHO,formaldehy HCOOH          
 H2O2            (HCOOH)2        O3              C(gr)           H2O(cr)        
 H2O(L)         

 NOTE. WEIGHT FRACTION OF FUEL IN TOTAL FUELS AND OF OXIDANT IN TOTAL OXIDANTS






 WARNING!!  ASSIGNED pip =   0.00000 IS NOT PERMITTED
 TO BE LESS THAN  Pinj/Pc =  1.00722. POINT OMITTED (ROCKET)





              THEORETICAL ROCKET PERFORMANCE ASSUMING EQUILIBRIUM

            COMPOSITION DURING EXPANSION FROM FINITE AREA COMBUSTOR

 Pin =    87.0 PSIA
 Ac/At =  7.6100      Pinj/Pinf =  1.003590
 CASE =                

             REACTANT                    WT FRACTION      ENERGY      TEMP
                                          (SEE NOTE)     KJ/KG-MOL      K  
 OXIDANT     O2(L)                        1.0000000    -12979.000     90.170
 FUEL        PMMA                         1.0000000   -442140.000    293.150

 O/F=    1.05432  %FUEL= 48.677908  R,EQ.RATIO= 1.628403  PHI,EQ.RATIO= 1.818904

                 INJECTOR  COMB END  THROAT
 Pinj/P            1.0000   1.0072   1.7702
 P, BAR            6.0000   5.9570   3.3895
 T, K             2846.36  2844.81  2627.61
 RHO, KG/CU M    5.7188-1 5.6811-1 3.5206-1
 H, KJ/KG        -2357.92 -2361.71 -2928.71
 U, KJ/KG        -3407.09 -3410.28 -3891.48
 G, KJ/KG        -35840.2 -35829.5 -33841.2
 S, KJ/(KG)(K)    11.7632  11.7645  11.7645

 M, (1/n)          22.557   22.558   22.692
 (dLV/dLP)t      -1.00684 -1.00683 -1.00361
 (dLV/dLT)p        1.1453   1.1450   1.0819
 Cp, KJ/(KG)(K)    3.1538   3.1519   2.6763
 GAMMAs            1.1716   1.1716   1.1857
 SON VEL,M/SEC     1108.7   1108.4   1068.4
 MACH NUMBER        0.000    0.078    1.000

 PERFORMANCE PARAMETERS

 Ae/At                      7.6100  1.00000
 CSTAR, M/SEC               1589.4   1589.4
 CF                         0.0547   0.6722
 Ivac, M/SEC               12138.6   1969.5
 Isp, M/SEC                   87.0   1068.4


 MOLE FRACTIONS

 *CO              0.43756  0.43754  0.43552
 *CO2             0.11081  0.11085  0.11615
 *H               0.01536  0.01534  0.00929
 *H2              0.15289  0.15292  0.15839
 H2O              0.27374  0.27375  0.27618
 *O               0.00050  0.00050  0.00014
 *OH              0.00876  0.00874  0.00423
 *O2              0.00036  0.00036  0.00010

  * THERMODYNAMIC PROPERTIES FITTED TO 20000.K

    PRODUCTS WHICH WERE CONSIDERED BUT WHOSE MOLE FRACTIONS
    WERE LESS THAN 5.000000E-06 FOR ALL ASSIGNED CONDITIONS

 *C              *CH             CH2             CH3             CH2OH          
 CH3O            CH4             CH3OH           CH3OOH          COOH           
 *C2             C2H             C2H2,acetylene  C2H2,vinylidene CH2CO,ketene   
 O(CH)2O         HO(CO)2OH       C2H3,vinyl      CH3CO,acetyl    C2H4           
 C2H4O,ethylen-o CH3CHO,ethanal  CH3COOH         OHCH2COOH       C2H5           
 C2H6            C2H5OH          CH3OCH3         CH3O2CH3        C2O            
 *C3             C3H3,1-propynl  C3H3,2-propynl  C3H4,allene     C3H4,propyne   
 C3H4,cyclo-     C3H5,allyl      C3H6,propylene  C3H6,cyclo-     C3H6O,propylox 
 C3H6O,acetone   C3H6O,propanal  C3H7,n-propyl   C3H7,i-propyl   C3H8           
 C3H8O,1propanol C3H8O,2propanol C3O2            *C4             C4H2,butadiyne 
 C4H4,1,3-cyclo- C4H6,butadiene  C4H6,1butyne    C4H6,2butyne    C4H6,cyclo-    
 C4H8,1-butene   C4H8,cis2-buten C4H8,tr2-butene C4H8,isobutene  C4H8,cyclo-    
 (CH3COOH)2      C4H9,n-butyl    C4H9,i-butyl    C4H9,s-butyl    C4H9,t-butyl   
 C4H10,n-butane  C4H10,isobutane *C5             C5H6,1,3cyclo-  C5H8,cyclo-    
 C5H10,1-pentene C5H10,cyclo-    C5H11,pentyl    C5H11,t-pentyl  C5H12,n-pentane
 C5H12,i-pentane CH3C(CH3)2CH3   C6H2            C6H5,phenyl     C6H5O,phenoxy  
 C6H6            C6H5OH,phenol   C6H10,cyclo-    C6H12,1-hexene  C6H12,cyclo-   
 C6H13,n-hexyl   C6H14,n-hexane  C7H7,benzyl     C7H8            C7H8O,cresol-mx
 C7H14,1-heptene C7H15,n-heptyl  C7H16,n-heptane C7H16,2-methylh C8H8,styrene   
 C8H10,ethylbenz C8H16,1-octene  C8H17,n-octyl   C8H18,n-octane  C8H18,isooctane
 C9H19,n-nonyl   C10H8,naphthale C10H21,n-decyl  C12H9,o-bipheny C12H10,biphenyl
 HCO             HCCO            HO2             HCHO,formaldehy HCOOH          
 H2O2            (HCOOH)2        O3              C(gr)           H2O(cr)        
 H2O(L)         

 NOTE. WEIGHT FRACTION OF FUEL IN TOTAL FUELS AND OF OXIDANT IN TOTAL OXIDANTS






 WARNING!!  ASSIGNED pip =   0.00000 IS NOT PERMITTED
 TO BE LESS THAN  Pinj/Pc =  1.00722. POINT OMITTED (ROCKET)





              THEORETICAL ROCKET PERFORMANCE ASSUMING EQUILIBRIUM

            COMPOSITION DURING EXPANSION FROM FINITE AREA COMBUSTOR

 Pin =    87.0 PSIA
 Ac/At =  7.6100      Pinj/Pinf =  1.003590
 CASE =                

             REACTANT                    WT FRACTION      ENERGY      TEMP
                                          (SEE NOTE)     KJ/KG-MOL      K  
 OXIDANT     O2(L)                        1.0000000    -12979.000     90.170
 FUEL        PMMA                         1.0000000   -442140.000    293.150

 O/F=    1.05432  %FUEL= 48.677908  R,EQ.RATIO= 1.628403  PHI,EQ.RATIO= 1.818904

                 INJECTOR  COMB END  THROAT
 Pinj/P            1.0000   1.0072   1.7702
 P, BAR            6.0000   5.9570   3.3895
 T, K             2846.36  2844.81  2627.61
 RHO, KG/CU M    5.7188-1 5.6811-1 3.5206-1
 H, KJ/KG        -2357.92 -2361.71 -2928.71
 U, KJ/KG        -3407.09 -3410.28 -3891.48
 G, KJ/KG        -35840.2 -35829.5 -33841.2
 S, KJ/(KG)(K)    11.7632  11.7645  11.7645

 M, (1/n)          22.557   22.558   22.692
 (dLV/dLP)t      -1.00684 -1.00683 -1.00361
 (dLV/dLT)p        1.1453   1.1450   1.0819
 Cp, KJ/(KG)(K)    3.1538   3.1519   2.6763
 GAMMAs            1.1716   1.1716   1.1857
 SON VEL,M/SEC     1108.7   1108.4   1068.4
 MACH NUMBER        0.000    0.078    1.000

 PERFORMANCE PARAMETERS

 Ae/At                      7.6100  1.00000
 CSTAR, M/SEC               1589.4   1589.4
 CF                         0.0547   0.6722
 Ivac, M/SEC               12138.6   1969.5
 Isp, M/SEC                   87.0   1068.4


 MOLE FRACTIONS

 *CO              0.43756  0.43754  0.43552
 *CO2             0.11081  0.11085  0.11615
 *H               0.01536  0.01534  0.00929
 *H2              0.15289  0.15292  0.15839
 H2O              0.27374  0.27375  0.27618
 *O               0.00050  0.00050  0.00014
 *OH              0.00876  0.00874  0.00423
 *O2              0.00036  0.00036  0.00010

  * THERMODYNAMIC PROPERTIES FITTED TO 20000.K

    PRODUCTS WHICH WERE CONSIDERED BUT WHOSE MOLE FRACTIONS
    WERE LESS THAN 5.000000E-06 FOR ALL ASSIGNED CONDITIONS

 *C              *CH             CH2             CH3             CH2OH          
 CH3O            CH4             CH3OH           CH3OOH          COOH           
 *C2             C2H             C2H2,acetylene  C2H2,vinylidene CH2CO,ketene   
 O(CH)2O         HO(CO)2OH       C2H3,vinyl      CH3CO,acetyl    C2H4           
 C2H4O,ethylen-o CH3CHO,ethanal  CH3COOH         OHCH2COOH       C2H5           
 C2H6            C2H5OH          CH3OCH3         CH3O2CH3        C2O            
 *C3             C3H3,1-propynl  C3H3,2-propynl  C3H4,allene     C3H4,propyne   
 C3H4,cyclo-     C3H5,allyl      C3H6,propylene  C3H6,cyclo-     C3H6O,propylox 
 C3H6O,acetone   C3H6O,propanal  C3H7,n-propyl   C3H7,i-propyl   C3H8           
 C3H8O,1propanol C3H8O,2propanol C3O2            *C4             C4H2,butadiyne 
 C4H4,1,3-cyclo- C4H6,butadiene  C4H6,1butyne    C4H6,2butyne    C4H6,cyclo-    
 C4H8,1-butene   C4H8,cis2-buten C4H8,tr2-butene C4H8,isobutene  C4H8,cyclo-    
 (CH3COOH)2      C4H9,n-butyl    C4H9,i-butyl    C4H9,s-butyl    C4H9,t-butyl   
 C4H10,n-butane  C4H10,isobutane *C5             C5H6,1,3cyclo-  C5H8,cyclo-    
 C5H10,1-pentene C5H10,cyclo-    C5H11,pentyl    C5H11,t-pentyl  C5H12,n-pentane
 C5H12,i-pentane CH3C(CH3)2CH3   C6H2            C6H5,phenyl     C6H5O,phenoxy  
 C6H6            C6H5OH,phenol   C6H10,cyclo-    C6H12,1-hexene  C6H12,cyclo-   
 C6H13,n-hexyl   C6H14,n-hexane  C7H7,benzyl     C7H8            C7H8O,cresol-mx
 C7H14,1-heptene C7H15,n-heptyl  C7H16,n-heptane C7H16,2-methylh C8H8,styrene   
 C8H10,ethylbenz C8H16,1-octene  C8H17,n-octyl   C8H18,n-octane  C8H18,isooctane
 C9H19,n-nonyl   C10H8,naphthale C10H21,n-decyl  C12H9,o-bipheny C12H10,biphenyl
 HCO             HCCO            HO2             HCHO,formaldehy HCOOH          
 H2O2            (HCOOH)2        O3              C(gr)           H2O(cr)        
 H2O(L)         

 NOTE. WEIGHT FRACTION OF FUEL IN TOTAL FUELS AND OF OXIDANT IN TOTAL OXIDANTS





   4    4    2063.267     -21.716     -13.637     -10.774





              THEORETICAL ROCKET PERFORMANCE ASSUMING EQUILIBRIUM

            COMPOSITION DURING EXPANSION FROM FINITE AREA COMBUSTOR

 Pin =    87.0 PSIA
 Ac/At =  7.6100      Pinj/Pinf =  1.003590
 CASE =                

             REACTANT                    WT FRACTION      ENERGY      TEMP
                                          (SEE NOTE)     KJ/KG-MOL      K  
 OXIDANT     O2(L)                        1.0000000    -12979.000     90.170
 FUEL        PMMA                         1.0000000   -442140.000    293.150

 O/F=    1.05432  %FUEL= 48.677908  R,EQ.RATIO= 1.628403  PHI,EQ.RATIO= 1.818904

                 INJECTOR  COMB END  THROAT     EXIT
 Pinj/P            1.0000   1.0072   1.7702   7.6100
 P, BAR            6.0000   5.9570   3.3895  0.78844
 T, K             2846.36  2844.81  2627.61  2063.27
 RHO, KG/CU M    5.7188-1 5.6811-1 3.5206-1 1.0495-1
 H, KJ/KG        -2357.92 -2361.71 -2928.71 -4176.00
 U, KJ/KG        -3407.09 -3410.28 -3891.48 -4927.22
 G, KJ/KG        -35840.2 -35829.5 -33841.2 -28449.3
 S, KJ/(KG)(K)    11.7632  11.7645  11.7645  11.7645

 M, (1/n)          22.557   22.558   22.692   22.836
 (dLV/dLP)t      -1.00684 -1.00683 -1.00361 -1.00035
 (dLV/dLT)p        1.1453   1.1450   1.0819   1.0096
 Cp, KJ/(KG)(K)    3.1538   3.1519   2.6763   2.0422
 GAMMAs            1.1716   1.1716   1.1857   1.2216
 SON VEL,M/SEC     1108.7   1108.4   1068.4    957.9
 MACH NUMBER        0.000    0.078    1.000    1.991

 PERFORMANCE PARAMETERS

 Ae/At                      7.6100  1.00000   1.8795
 CSTAR, M/SEC               1589.4   1589.4   1589.4
 CF                         0.0547   0.6722   1.1998
 Ivac, M/SEC               12138.6   1969.5   2300.8
 Isp, M/SEC                   87.0   1068.4   1906.9


 MOLE FRACTIONS

 *CO              0.43756  0.43754  0.43552  0.42261
 *CO2             0.11081  0.11085  0.11615  0.13256
 *H               0.01536  0.01534  0.00929  0.00117
 *H2              0.15289  0.15292  0.15839  0.17679
 H2O              0.27374  0.27375  0.27618  0.26665
 *O               0.00050  0.00050  0.00014  0.00000
 *OH              0.00876  0.00874  0.00423  0.00022
 *O2              0.00036  0.00036  0.00010  0.00000

  * THERMODYNAMIC PROPERTIES FITTED TO 20000.K

    PRODUCTS WHICH WERE CONSIDERED BUT WHOSE MOLE FRACTIONS
    WERE LESS THAN 5.000000E-06 FOR ALL ASSIGNED CONDITIONS

 *C              *CH             CH2             CH3             CH2OH          
 CH3O            CH4             CH3OH           CH3OOH          COOH           
 *C2             C2H             C2H2,acetylene  C2H2,vinylidene CH2CO,ketene   
 O(CH)2O         HO(CO)2OH       C2H3,vinyl      CH3CO,acetyl    C2H4           
 C2H4O,ethylen-o CH3CHO,ethanal  CH3COOH         OHCH2COOH       C2H5           
 C2H6            C2H5OH          CH3OCH3         CH3O2CH3        C2O            
 *C3             C3H3,1-propynl  C3H3,2-propynl  C3H4,allene     C3H4,propyne   
 C3H4,cyclo-     C3H5,allyl      C3H6,propylene  C3H6,cyclo-     C3H6O,propylox 
 C3H6O,acetone   C3H6O,propanal  C3H7,n-propyl   C3H7,i-propyl   C3H8           
 C3H8O,1propanol C3H8O,2propanol C3O2            *C4             C4H2,butadiyne 
 C4H4,1,3-cyclo- C4H6,butadiene  C4H6,1butyne    C4H6,2butyne    C4H6,cyclo-    
 C4H8,1-butene   C4H8,cis2-buten C4H8,tr2-butene C4H8,isobutene  C4H8,cyclo-    
 (CH3COOH)2      C4H9,n-butyl    C4H9,i-butyl    C4H9,s-butyl    C4H9,t-butyl   
 C4H10,n-butane  C4H10,isobutane *C5             C5H6,1,3cyclo-  C5H8,cyclo-    
 C5H10,1-pentene C5H10,cyclo-    C5H11,pentyl    C5H11,t-pentyl  C5H12,n-pentane
 C5H12,i-pentane CH3C(CH3)2CH3   C6H2            C6H5,phenyl     C6H5O,phenoxy  
 C6H6            C6H5OH,phenol   C6H10,cyclo-    C6H12,1-hexene  C6H12,cyclo-   
 C6H13,n-hexyl   C6H14,n-hexane  C7H7,benzyl     C7H8            C7H8O,cresol-mx
 C7H14,1-heptene C7H15,n-heptyl  C7H16,n-heptane C7H16,2-methylh C8H8,styrene   
 C8H10,ethylbenz C8H16,1-octene  C8H17,n-octyl   C8H18,n-octane  C8H18,isooctane
 C9H19,n-nonyl   C10H8,naphthale C10H21,n-decyl  C12H9,o-bipheny C12H10,biphenyl
 HCO             HCCO            HO2             HCHO,formaldehy HCOOH          
 H2O2            (HCOOH)2        O3              C(gr)           H2O(cr)        
 H2O(L)         

 NOTE. WEIGHT FRACTION OF FUEL IN TOTAL FUELS AND OF OXIDANT IN TOTAL OXIDANTS

 AN ASSIGNED AREA RATIO IS < 1 (ROCKET)





           THEORETICAL ROCKET PERFORMANCE ASSUMING FROZEN COMPOSITION

 Pin =    87.0 PSIA
 Ac/At =  7.6100      Pinj/Pinf =  1.003590
 CASE =                

             REACTANT                    WT FRACTION      ENERGY      TEMP
                                          (SEE NOTE)     KJ/KG-MOL      K  
 OXIDANT     O2(L)                        1.0000000    -12979.000     90.170
 FUEL        PMMA                         1.0000000   -442140.000    293.150

 O/F=    1.05432  %FUEL= 48.677908  R,EQ.RATIO= 1.628403  PHI,EQ.RATIO= 1.818904

                 INJECTOR  COMB END  THROAT
 Pinj/P            1.0000   1.7605   1.7913
 P, BAR            6.0000   3.4081   3.3496
 T, K             2846.36  2560.88  2552.56
 RHO, KG/CU M    5.7188-1 3.6104-1 3.5601-1
 H, KJ/KG        -2357.92 -2921.13 -2937.44
 U, KJ/KG        -3407.09 -3865.08 -3878.32
 G, KJ/KG        -35840.2 -33045.3 -32963.6
 S, KJ/(KG)(K)    11.7632  11.7632  11.7632

 M, (1/n)          22.557   22.557   22.557
 Cp, KJ/(KG)(K)    1.9855   1.9594   1.9585
 GAMMAs            1.2280   1.2317   1.2318
 SON VEL,M/SEC     1135.1   1078.3   1076.6
 MACH NUMBER        0.000    0.984    1.000

 PERFORMANCE PARAMETERS

 Ae/At                      7.6100   1.0000
 CSTAR, M/SEC               1559.9   1559.9
 CF                         0.6804   0.6902
 Ivac, M/SEC                1950.7   1950.5
 Isp, M/SEC                 1061.3   1076.6

 MOLE FRACTIONS

 *CO             0.43756   *CO2            0.11081   *H              0.01536
 *H2             0.15289   H2O             0.27374   *O              0.00050
 *OH             0.00876   *O2             0.00036

  * THERMODYNAMIC PROPERTIES FITTED TO 20000.K

    PRODUCTS WHICH WERE CONSIDERED BUT WHOSE MOLE FRACTIONS
    WERE LESS THAN 5.000000E-06 FOR ALL ASSIGNED CONDITIONS

 *C              *CH             CH2             CH3             CH2OH          
 CH3O            CH4             CH3OH           CH3OOH          COOH           
 *C2             C2H             C2H2,acetylene  C2H2,vinylidene CH2CO,ketene   
 O(CH)2O         HO(CO)2OH       C2H3,vinyl      CH3CO,acetyl    C2H4           
 C2H4O,ethylen-o CH3CHO,ethanal  CH3COOH         OHCH2COOH       C2H5           
 C2H6            C2H5OH          CH3OCH3         CH3O2CH3        C2O            
 *C3             C3H3,1-propynl  C3H3,2-propynl  C3H4,allene     C3H4,propyne   
 C3H4,cyclo-     C3H5,allyl      C3H6,propylene  C3H6,cyclo-     C3H6O,propylox 
 C3H6O,acetone   C3H6O,propanal  C3H7,n-propyl   C3H7,i-propyl   C3H8           
 C3H8O,1propanol C3H8O,2propanol C3O2            *C4             C4H2,butadiyne 
 C4H4,1,3-cyclo- C4H6,butadiene  C4H6,1butyne    C4H6,2butyne    C4H6,cyclo-    
 C4H8,1-butene   C4H8,cis2-buten C4H8,tr2-butene C4H8,isobutene  C4H8,cyclo-    
 (CH3COOH)2      C4H9,n-butyl    C4H9,i-butyl    C4H9,s-butyl    C4H9,t-butyl   
 C4H10,n-butane  C4H10,isobutane *C5             C5H6,1,3cyclo-  C5H8,cyclo-    
 C5H10,1-pentene C5H10,cyclo-    C5H11,pentyl    C5H11,t-pentyl  C5H12,n-pentane
 C5H12,i-pentane CH3C(CH3)2CH3   C6H2            C6H5,phenyl     C6H5O,phenoxy  
 C6H6            C6H5OH,phenol   C6H10,cyclo-    C6H12,1-hexene  C6H12,cyclo-   
 C6H13,n-hexyl   C6H14,n-hexane  C7H7,benzyl     C7H8            C7H8O,cresol-mx
 C7H14,1-heptene C7H15,n-heptyl  C7H16,n-heptane C7H16,2-methylh C8H8,styrene   
 C8H10,ethylbenz C8H16,1-octene  C8H17,n-octyl   C8H18,n-octane  C8H18,isooctane
 C9H19,n-nonyl   C10H8,naphthale C10H21,n-decyl  C12H9,o-bipheny C12H10,biphenyl
 HCO             HCCO            HO2             HCHO,formaldehy HCOOH          
 H2O2            (HCOOH)2        O3              C(gr)           H2O(cr)        
 H2O(L)         

 NOTE. WEIGHT FRACTION OF FUEL IN TOTAL FUELS AND OF OXIDANT IN TOTAL OXIDANTS



