
 *******************************************************************************

         NASA-GLENN CHEMICAL EQUILIBRIUM PROGRAM CEA2, MAY 21, 2004
                   BY  BONNIE MCBRIDE AND SANFORD GORDON
      REFS: NASA RP-1311, PART I, 1994 AND NASA RP-1311, PART II, 1996

 *******************************************************************************



 prob rocket fac p,bar=68,ac/at=1.00,
 super=25, pi/pe=68
 reac
   fuel = CH4  moles=2.00   t(k)= 298.15
   oxid = N2O  moles=0.25 t(k)= 298.15
   oxid = O2   moles=0.75 t(k)= 298.15
 end

 OPTIONS: TP=F  HP=F  SP=F  TV=F  UV=F  SV=F  DETN=F  SHOCK=F  REFL=F  INCD=F
 RKT=T  FROZ=F  EQL=T  IONS=F  SIUNIT=T  DEBUGF=F  SHKDBG=F  DETDBG=F  TRNSPT=F

 TRACE= 0.00E+00  S/R= 0.000000E+00  H/R= 0.000000E+00  U/R= 0.000000E+00

 Pc,BAR =    68.000000

 Pc/P =    68.0000

 SUBSONIC AREA RATIOS =

 SUPERSONIC AREA RATIOS =    25.0000

 NFZ=  1  Mdot/Ac= 0.000000E+00  Ac/At= 1.000000E+00

    REACTANT           MOLES    (ENERGY/R),K   TEMP,K  DENSITY
        EXPLODED FORMULA
 F: CH4              2.000000  -0.897227E+04   298.15  0.0000
          C  1.00000  H  4.00000
 O: N2O              0.250000   0.981417E+04   298.15  0.0000
          N  2.00000  O  1.00000
 O: O2               0.750000  -0.154035E-05   298.15  0.0000
          O  2.00000

  SPECIES BEING CONSIDERED IN THIS SYSTEM
 (CONDENSED PHASE MAY HAVE NAME LISTED SEVERAL TIMES)
  LAST thermo.inp UPDATE:    9/09/04

  g 7/97  *C               tpis79  *CH              g 4/02  CH2            
  g 4/02  CH3              g11/00  CH2OH            g 7/00  CH3O           
  g 8/99  CH4              g 7/00  CH3OH            srd 01  CH3OOH         
  g 8/99  *CN              g12/99  CNN              tpis79  *CO            
  g 9/99  *CO2             tpis91  COOH             tpis91  *C2            
  g 6/01  C2H              g 1/91  C2H2,acetylene   g 5/01  C2H2,vinylidene
  g 4/02  CH2CO,ketene     g 3/02  O(CH)2O          srd 01  HO(CO)2OH      
  g 7/01  C2H3,vinyl       g 9/00  CH3CN            g 6/96  CH3CO,acetyl   
  g 1/00  C2H4             g 8/88  C2H4O,ethylen-o  g 8/88  CH3CHO,ethanal 
  g 6/00  CH3COOH          srd 01  OHCH2COOH        g 7/00  C2H5           
  g 7/00  C2H6             g 8/88  CH3N2CH3         g 8/88  C2H5OH         
  g 7/00  CH3OCH3          srd 01  CH3O2CH3         g 7/00  CCN            
  tpis91  CNC              srd 01  OCCN             tpis79  C2N2           
  g 8/00  C2O              tpis79  *C3              n 4/98  C3H3,1-propynl 
  n 4/98  C3H3,2-propynl   g 2/00  C3H4,allene      g 1/00  C3H4,propyne   
  g 5/90  C3H4,cyclo-      g 3/01  C3H5,allyl       g 2/00  C3H6,propylene 
  g 1/00  C3H6,cyclo-      g 6/01  C3H6O,propylox   g 6/97  C3H6O,acetone  
  g 1/02  C3H6O,propanal   g 7/01  C3H7,n-propyl    g 9/85  C3H7,i-propyl  
  g 2/00  C3H8             g 2/00  C3H8O,1propanol  g 2/00  C3H8O,2propanol
  srd 01  CNCOCN           g 7/88  C3O2             g tpis  *C4            
  g 7/01  C4H2,butadiyne   g 8/00  C4H4,1,3-cyclo-  n10/92  C4H6,butadiene 
  n10/93  C4H6,1butyne     n10/93  C4H6,2butyne     g 8/00  C4H6,cyclo-    
  n 4/88  C4H8,1-butene    n 4/88  C4H8,cis2-buten  n 4/88  C4H8,tr2-butene
  n 4/88  C4H8,isobutene   g 8/00  C4H8,cyclo-      g10/00  (CH3COOH)2     
  n10/84  C4H9,n-butyl     n10/84  C4H9,i-butyl     g 1/93  C4H9,s-butyl   
  g 1/93  C4H9,t-butyl     g12/00  C4H10,n-butane   g 8/00  C4H10,isobutane
  g 6/01  C4N2             g 8/00  *C5              g 5/90  C5H6,1,3cyclo- 
  g 1/93  C5H8,cyclo-      n 4/87  C5H10,1-pentene  g 2/01  C5H10,cyclo-   
  n10/84  C5H11,pentyl     g 1/93  C5H11,t-pentyl   n10/85  C5H12,n-pentane
  n10/85  C5H12,i-pentane  n10/85  CH3C(CH3)2CH3    g 2/93  C6H2           
  g11/00  C6H5,phenyl      g 8/00  C6H5O,phenoxy    g 8/00  C6H6           
  g 8/00  C6H5OH,phenol    g 1/93  C6H10,cyclo-     n 4/87  C6H12,1-hexene 
  g 6/90  C6H12,cyclo-     n10/83  C6H13,n-hexyl    g 6/01  C6H14,n-hexane 
  g 7/01  C7H7,benzyl      g 1/93  C7H8             g12/00  C7H8O,cresol-mx
  n 4/87  C7H14,1-heptene  n10/83  C7H15,n-heptyl   n10/85  C7H16,n-heptane
  n10/85  C7H16,2-methylh  n 4/89  C8H8,styrene     n10/86  C8H10,ethylbenz
  n 4/87  C8H16,1-octene   n10/83  C8H17,n-octyl    n 4/85  C8H18,n-octane 
  n 4/85  C8H18,isooctane  n10/83  C9H19,n-nonyl    g 3/01  C10H8,naphthale
  n10/83  C10H21,n-decyl   g 8/00  C12H9,o-bipheny  g 8/00  C12H10,biphenyl
  g 6/97  *H               g 6/01  HCN              g 1/01  HCO            
  tpis89  HCCN             g 6/01  HCCO             g 6/01  HNC            
  g 7/00  HNCO             g10/01  HNO              tpis89  HNO2           
  g 5/99  HNO3             g 4/02  HO2              tpis78  *H2            
  g 5/01  HCHO,formaldehy  g 6/01  HCOOH            g 8/89  H2O            
  g 6/99  H2O2             g 6/01  (HCOOH)2         g 5/97  *N             
  g 6/01  NCO              g 4/99  *NH              g 3/01  NH2            
  tpis89  NH3              tpis89  NH2OH            tpis89  *NO            
  g 4/99  NO2              j12/64  NO3              tpis78  *N2            
  g 6/01  NCN              g 5/99  N2H2             tpis89  NH2NO2         
  g 4/99  N2H4             g 4/99  N2O              g 4/99  N2O3           
  tpis89  N2O4             g 4/99  N2O5             tpis89  N3             
  g 4/99  N3H              g 5/97  *O               g 4/02  *OH            
  tpis89  *O2              g 8/01  O3               n 4/83  C(gr)          
  n 4/83  C(gr)            n 4/83  C(gr)            g11/99  H2O(cr)        
  g 8/01  H2O(L)           g 8/01  H2O(L)         

 O/F =   1.090927

                       EFFECTIVE FUEL     EFFECTIVE OXIDANT        MIXTURE
 ENTHALPY                  h(2)/R              h(1)/R               h0/R
 (KG-MOL)(K)/KG       -0.55928246E+03      0.70096595E+02     -0.23090823E+03

 KG-FORM.WT./KG             bi(2)               bi(1)               b0i
  *C                   0.62334580E-01      0.00000000E+00      0.29811937E-01
  *H                   0.24933832E+00      0.00000000E+00      0.11924775E+00
  *N                   0.00000000E+00      0.14284776E-01      0.74529843E-02
  *O                   0.00000000E+00      0.49996715E-01      0.26085445E-01

 POINT ITN      T            C           H           N           O 

   1   18    1296.638      -1.811      -7.359     -12.168     -31.932

 ADD  C(gr)          
   1    2    1298.552      -1.932      -7.348     -12.172     -31.834

   2    3    1277.883      -1.905      -7.439     -12.278     -32.235

 Pinf/Pt = 1.754530
   3    4    1199.357      -1.799      -7.634     -12.460     -33.496

 Pinf/Pt = 1.746624
   3    2    1199.945      -1.800      -7.632     -12.458     -33.486

 Pinf/Pt = 1.746679
   3    1    1199.941      -1.800      -7.632     -12.458     -33.486

   4    4    1207.253      -1.810      -7.613     -12.440     -33.360

   4    3    1203.712      -1.805      -7.622     -12.449     -33.421

   4    2    1201.856      -1.803      -7.627     -12.453     -33.453

   4    2    1200.906      -1.801      -7.630     -12.456     -33.469

   4    2    1200.425      -1.801      -7.631     -12.457     -33.477

   2    3    1281.051      -1.909      -7.425     -12.262     -32.173

 Pinf/Pt = 1.754597
   3    4    1202.197      -1.803      -7.619     -12.443     -33.433

 Pinf/Pt = 1.746718
   3    2    1202.786      -1.804      -7.618     -12.442     -33.423

 Pinf/Pt = 1.746771
   3    1    1202.782      -1.804      -7.618     -12.442     -33.423

   4    4    1210.124      -1.814      -7.598     -12.423     -33.297

   4    3    1206.569      -1.809      -7.607     -12.432     -33.358

   4    2    1204.705      -1.807      -7.612     -12.437     -33.390

   4    2    1203.751      -1.805      -7.615     -12.439     -33.406

   4    2    1203.268      -1.805      -7.616     -12.440     -33.415

 END OF CHAMBER ITERATIONS
   4    5     871.211      -1.338      -8.931     -13.694     -41.724

   5    4     756.056      -1.173      -9.625     -14.338     -46.462

   5    3     777.655      -1.204      -9.483     -14.210     -45.465

   5    2     777.715      -1.204      -9.483     -14.209     -45.462






              THEORETICAL ROCKET PERFORMANCE ASSUMING EQUILIBRIUM

            COMPOSITION DURING EXPANSION FROM FINITE AREA COMBUSTOR

 Pin =   986.3 PSIA
 Ac/At =  1.0000      Pinj/Pinf =  1.236898
 CASE =                

             REACTANT                       MOLES         ENERGY      TEMP
                                                         KJ/KG-MOL      K
 FUEL        CH4                          2.0000000    -74600.000    298.150
 OXIDANT     N2O                          0.2500000     81600.000    298.150
 OXIDANT     O2                           0.7500000        -0.000    298.150

 O/F=    1.09093  %FUEL= 47.825681  R,EQ.RATIO= 4.571429  PHI,EQ.RATIO= 4.571429

                 INJECTOR  COMB END  THROAT     EXIT     EXIT
 Pinj/P            1.0000   2.1526   2.1606   68.000   257.15
 P, BAR            68.000   31.590   31.473   1.0000  0.26444
 T, K             1298.55  1203.27  1202.78   871.21   777.71
 RHO, KG/CU M    8.6138 0 4.3573 0 4.3434 0 2.1041-1 6.4701-2
 H, KJ/KG        -1919.89 -2337.70 -2340.39 -4365.06 -4951.89
 U, KJ/KG        -2709.32 -3062.69 -3065.01 -4840.33 -5360.60
 G, KJ/KG        -20027.4 -19272.6 -19268.5 -16626.6 -15897.5
 S, KJ/(KG)(K)    13.9444  14.0741  14.0741  14.0741  14.0741

 M, (1/n)          13.677   13.800   13.801   15.241   15.821
 MW, MOL WT        13.443   13.213   13.213   12.842   12.889
 (dLV/dLP)t      -1.11039 -1.11288 -1.11289 -1.09878 -1.08767
 (dLV/dLT)p        2.1715   2.3106   2.3114   2.4790   2.3593
 Cp, KJ/(KG)(K)   11.1232  12.7989  12.8083  15.7927  14.5047
 GAMMAs            1.1728   1.1607   1.1606   1.1280   1.1287
 SON VEL,M/SEC      962.2    917.3    917.1    732.2    679.2
 MACH NUMBER        0.000    0.997    1.000    3.020    3.626

 PERFORMANCE PARAMETERS

 Ae/At                      1.0000   1.0000   8.5605   25.000
 CSTAR, M/SEC               1380.2   1380.2   1380.2   1380.2
 CF                         0.6623   0.6644   1.6022   1.7842
 Ivac, M/SEC                1707.2   1707.2   2426.3   2628.5
 Isp, M/SEC                  914.1    917.1   2211.4   2462.5


 MOLE FRACTIONS

 CH4              0.12569  0.11520  0.11518  0.09813  0.10034
 *CO              0.23723  0.20990  0.20973  0.06589  0.03154
 *CO2             0.02050  0.02625  0.02629  0.06139  0.06700
 C2H4             0.00003  0.00001  0.00001  0.00000  0.00000
 C2H6             0.00004  0.00002  0.00002  0.00000  0.00000
 HCN              0.00004  0.00001  0.00001  0.00000  0.00000
 *H2              0.47653  0.47439  0.47433  0.42293  0.39703
 H2O              0.07241  0.08227  0.08235  0.14632  0.17067
 NH3              0.00064  0.00045  0.00045  0.00011  0.00007
 *N2              0.04975  0.04901  0.04900  0.04780  0.04800
 C(gr)            0.01713  0.04248  0.04262  0.15743  0.18536

  * THERMODYNAMIC PROPERTIES FITTED TO 20000.K

    PRODUCTS WHICH WERE CONSIDERED BUT WHOSE MOLE FRACTIONS
    WERE LESS THAN 5.000000E-06 FOR ALL ASSIGNED CONDITIONS

 *C              *CH             CH2             CH3             CH2OH          
 CH3O            CH3OH           CH3OOH          *CN             CNN            
 COOH            *C2             C2H             C2H2,acetylene  C2H2,vinylidene
 CH2CO,ketene    O(CH)2O         HO(CO)2OH       C2H3,vinyl      CH3CN          
 CH3CO,acetyl    C2H4O,ethylen-o CH3CHO,ethanal  CH3COOH         OHCH2COOH      
 C2H5            CH3N2CH3        C2H5OH          CH3OCH3         CH3O2CH3       
 CCN             CNC             OCCN            C2N2            C2O            
 *C3             C3H3,1-propynl  C3H3,2-propynl  C3H4,allene     C3H4,propyne   
 C3H4,cyclo-     C3H5,allyl      C3H6,propylene  C3H6,cyclo-     C3H6O,propylox 
 C3H6O,acetone   C3H6O,propanal  C3H7,n-propyl   C3H7,i-propyl   C3H8           
 C3H8O,1propanol C3H8O,2propanol CNCOCN          C3O2            *C4            
 C4H2,butadiyne  C4H4,1,3-cyclo- C4H6,butadiene  C4H6,1butyne    C4H6,2butyne   
 C4H6,cyclo-     C4H8,1-butene   C4H8,cis2-buten C4H8,tr2-butene C4H8,isobutene 
 C4H8,cyclo-     (CH3COOH)2      C4H9,n-butyl    C4H9,i-butyl    C4H9,s-butyl   
 C4H9,t-butyl    C4H10,n-butane  C4H10,isobutane C4N2            *C5            
 C5H6,1,3cyclo-  C5H8,cyclo-     C5H10,1-pentene C5H10,cyclo-    C5H11,pentyl   
 C5H11,t-pentyl  C5H12,n-pentane C5H12,i-pentane CH3C(CH3)2CH3   C6H2           
 C6H5,phenyl     C6H5O,phenoxy   C6H6            C6H5OH,phenol   C6H10,cyclo-   
 C6H12,1-hexene  C6H12,cyclo-    C6H13,n-hexyl   C6H14,n-hexane  C7H7,benzyl    
 C7H8            C7H8O,cresol-mx C7H14,1-heptene C7H15,n-heptyl  C7H16,n-heptane
 C7H16,2-methylh C8H8,styrene    C8H10,ethylbenz C8H16,1-octene  C8H17,n-octyl  
 C8H18,n-octane  C8H18,isooctane C9H19,n-nonyl   C10H8,naphthale C10H21,n-decyl 
 C12H9,o-bipheny C12H10,biphenyl *H              HCO             HCCN           
 HCCO            HNC             HNCO            HNO             HNO2           
 HNO3            HO2             HCHO,formaldehy HCOOH           H2O2           
 (HCOOH)2        *N              NCO             *NH             NH2            
 NH2OH           *NO             NO2             NO3             NCN            
 N2H2            NH2NO2          N2H4            N2O             N2O3           
 N2O4            N2O5            N3              N3H             *O             
 *OH             *O2             O3              H2O(cr)         H2O(L)         



