
 *******************************************************************************

         NASA-GLENN CHEMICAL EQUILIBRIUM PROGRAM CEA2, MAY 21, 2004
                   BY  BONNIE MCBRIDE AND SANFORD GORDON
      REFS: NASA RP-1311, PART I, 1994 AND NASA RP-1311, PART II, 1996

 *******************************************************************************



 prob rocket fac p,bar=7.75,ac/at=7.78362876946,
 o/f=0.945390250119, pi/pe=1, eq
 react
 	oxid=CH4  wt=0.0	t,k=654.9
 	oxid=CO2 wt=0.0227	t,k=654.9
 	oxid=CO wt=0.0	t,k=654.9
 	oxid=H  wt=0.0	t,k=654.9
 	oxid=H2 wt=0.0	t,k=654.9
 	oxid=H2O wt=0.0181	t,k=654.9
 	oxid=O  wt=0.0	t,k=654.9
 	oxid=O2 wt=0.9592	t,k=654.9
 	oxid=OH wt=0.0	t,k=654.9
 	fuel=PMMA  wt=100 t,k=293.15
 	h,kj/mol=-442.14  C 5 H 8 O 2
 end

 OPTIONS: TP=F  HP=F  SP=F  TV=F  UV=F  SV=F  DETN=F  SHOCK=F  REFL=F  INCD=F
 RKT=T  FROZ=F  EQL=T  IONS=F  SIUNIT=T  DEBUGF=F  SHKDBG=F  DETDBG=F  TRNSPT=F

 TRACE= 0.00E+00  S/R= 0.000000E+00  H/R= 0.000000E+00  U/R= 0.000000E+00

 Pc,BAR =     7.750000

 Pc/P =     1.0000

 SUBSONIC AREA RATIOS =

 SUPERSONIC AREA RATIOS =

 NFZ=  1  Mdot/Ac= 0.000000E+00  Ac/At= 7.783629E+00

    REACTANT          WT.FRAC   (ENERGY/R),K   TEMP,K  DENSITY
        EXPLODED FORMULA
 O: CH4              0.000000  -0.702712E+04   654.90  0.0000
          C  1.00000  H  4.00000
 O: CO2              0.022700  -0.454588E+05   654.90  0.0000
          C  1.00000  O  2.00000
 O: CO               0.000000  -0.120166E+05   654.90  0.0000
          C  1.00000  O  1.00000
 O: H                0.000000   0.271110E+05   654.90  0.0000
          H  1.00000
 O: H2               0.000000   0.125345E+04   654.90  0.0000
          H  2.00000
 O: H2O              0.018100  -0.275799E+05   654.90  0.0000
          H  2.00000  O  1.00000
 O: O                0.000000   0.308852E+05   654.90  0.0000
          O  1.00000
 O: O2               0.959200   0.132551E+04   654.90  0.0000
          O  2.00000
 O: OH               0.000000   0.575271E+04   654.90  0.0000
          O  1.00000  H  1.00000
 F: PMMA             1.000000  -0.531769E+05   293.15  0.0000
          C  5.00000  H  8.00000  O  2.00000

  SPECIES BEING CONSIDERED IN THIS SYSTEM
 (CONDENSED PHASE MAY HAVE NAME LISTED SEVERAL TIMES)
  LAST thermo.inp UPDATE:    9/09/04

  g 7/97  *C               tpis79  *CH              g 4/02  CH2            
  g 4/02  CH3              g11/00  CH2OH            g 7/00  CH3O           
  g 8/99  CH4              g 7/00  CH3OH            srd 01  CH3OOH         
  tpis79  *CO              g 9/99  *CO2             tpis91  COOH           
  tpis91  *C2              g 6/01  C2H              g 1/91  C2H2,acetylene 
  g 5/01  C2H2,vinylidene  g 4/02  CH2CO,ketene     g 3/02  O(CH)2O        
  srd 01  HO(CO)2OH        g 7/01  C2H3,vinyl       g 6/96  CH3CO,acetyl   
  g 1/00  C2H4             g 8/88  C2H4O,ethylen-o  g 8/88  CH3CHO,ethanal 
  g 6/00  CH3COOH          srd 01  OHCH2COOH        g 7/00  C2H5           
  g 7/00  C2H6             g 8/88  C2H5OH           g 7/00  CH3OCH3        
  srd 01  CH3O2CH3         g 8/00  C2O              tpis79  *C3            
  n 4/98  C3H3,1-propynl   n 4/98  C3H3,2-propynl   g 2/00  C3H4,allene    
  g 1/00  C3H4,propyne     g 5/90  C3H4,cyclo-      g 3/01  C3H5,allyl     
  g 2/00  C3H6,propylene   g 1/00  C3H6,cyclo-      g 6/01  C3H6O,propylox 
  g 6/97  C3H6O,acetone    g 1/02  C3H6O,propanal   g 7/01  C3H7,n-propyl  
  g 9/85  C3H7,i-propyl    g 2/00  C3H8             g 2/00  C3H8O,1propanol
  g 2/00  C3H8O,2propanol  g 7/88  C3O2             g tpis  *C4            
  g 7/01  C4H2,butadiyne   g 8/00  C4H4,1,3-cyclo-  n10/92  C4H6,butadiene 
  n10/93  C4H6,1butyne     n10/93  C4H6,2butyne     g 8/00  C4H6,cyclo-    
  n 4/88  C4H8,1-butene    n 4/88  C4H8,cis2-buten  n 4/88  C4H8,tr2-butene
  n 4/88  C4H8,isobutene   g 8/00  C4H8,cyclo-      g10/00  (CH3COOH)2     
  n10/84  C4H9,n-butyl     n10/84  C4H9,i-butyl     g 1/93  C4H9,s-butyl   
  g 1/93  C4H9,t-butyl     g12/00  C4H10,n-butane   g 8/00  C4H10,isobutane
  g 8/00  *C5              g 5/90  C5H6,1,3cyclo-   g 1/93  C5H8,cyclo-    
  n 4/87  C5H10,1-pentene  g 2/01  C5H10,cyclo-     n10/84  C5H11,pentyl   
  g 1/93  C5H11,t-pentyl   n10/85  C5H12,n-pentane  n10/85  C5H12,i-pentane
  n10/85  CH3C(CH3)2CH3    g 2/93  C6H2             g11/00  C6H5,phenyl    
  g 8/00  C6H5O,phenoxy    g 8/00  C6H6             g 8/00  C6H5OH,phenol  
  g 1/93  C6H10,cyclo-     n 4/87  C6H12,1-hexene   g 6/90  C6H12,cyclo-   
  n10/83  C6H13,n-hexyl    g 6/01  C6H14,n-hexane   g 7/01  C7H7,benzyl    
  g 1/93  C7H8             g12/00  C7H8O,cresol-mx  n 4/87  C7H14,1-heptene
  n10/83  C7H15,n-heptyl   n10/85  C7H16,n-heptane  n10/85  C7H16,2-methylh
  n 4/89  C8H8,styrene     n10/86  C8H10,ethylbenz  n 4/87  C8H16,1-octene 
  n10/83  C8H17,n-octyl    n 4/85  C8H18,n-octane   n 4/85  C8H18,isooctane
  n10/83  C9H19,n-nonyl    g 3/01  C10H8,naphthale  n10/83  C10H21,n-decyl 
  g 8/00  C12H9,o-bipheny  g 8/00  C12H10,biphenyl  g 6/97  *H             
  g 1/01  HCO              g 6/01  HCCO             g 4/02  HO2            
  tpis78  *H2              g 5/01  HCHO,formaldehy  g 6/01  HCOOH          
  g 8/89  H2O              g 6/99  H2O2             g 6/01  (HCOOH)2       
  g 5/97  *O               g 4/02  *OH              tpis89  *O2            
  g 8/01  O3               n 4/83  C(gr)            n 4/83  C(gr)          
  n 4/83  C(gr)            g11/99  H2O(cr)          g 8/01  H2O(L)         
  g 8/01  H2O(L)         

 O/F =   0.945390

                       EFFECTIVE FUEL     EFFECTIVE OXIDANT        MIXTURE
 ENTHALPY                  h(2)/R              h(1)/R               h0/R
 (KG-MOL)(K)/KG       -0.53115398E+03     -0.11423427E+02     -0.27858347E+03

 KG-FORM.WT./KG             bi(2)               bi(1)               b0i
  *C                   0.49942157E-01      0.51579773E-03      0.25922710E-01
  *H                   0.79907451E-01      0.20094053E-02      0.42051780E-01
  *O                   0.19976863E-01      0.61988546E-01      0.40393042E-01

 POINT ITN      T            C           H           O 
   1   22    2596.066     -12.966      -9.916     -19.482
   2    2    2595.443     -12.997      -9.932     -19.484
 Pinf/Pt = 1.777803
   3    4    2347.530     -12.672     -10.035     -20.572
 Pinf/Pt = 1.787430
   3    2    2345.242     -12.669     -10.036     -20.583
 Pinf/Pt = 1.787507
   3    1    2345.224     -12.669     -10.036     -20.583
   4    2    2593.308     -12.995      -9.933     -19.493
   4    2    2594.006     -12.995      -9.932     -19.490
   4    1    2593.907     -12.995      -9.932     -19.490
   4    1    2593.903     -12.995      -9.932     -19.490
   2    2    2596.000     -12.969      -9.917     -19.482
 Pinf/Pt = 1.777977
   3    4    2347.707     -12.644     -10.020     -20.571
 Pinf/Pt = 1.787543
   3    2    2345.431     -12.640     -10.021     -20.582
 Pinf/Pt = 1.787619
   3    1    2345.413     -12.640     -10.021     -20.582
   4    2    2593.861     -12.967      -9.918     -19.491
   4    2    2594.561     -12.968      -9.918     -19.488
   4    1    2594.461     -12.968      -9.918     -19.488
   4    1    2594.457     -12.968      -9.918     -19.488
 END OF CHAMBER ITERATIONS

 WARNING!!  ASSIGNED pip =   1.00000 IS NOT PERMITTED
 TO BE LESS THAN  Pinj/Pc =  1.00706. POINT OMITTED (ROCKET)





              THEORETICAL ROCKET PERFORMANCE ASSUMING EQUILIBRIUM

            COMPOSITION DURING EXPANSION FROM FINITE AREA COMBUSTOR

 Pin =   112.4 PSIA
 Ac/At =  7.7836      Pinj/Pinf =  1.003514
 CASE =                

             REACTANT                    WT FRACTION      ENERGY      TEMP
                                          (SEE NOTE)     KJ/KG-MOL      K  
 OXIDANT     CH4                          0.0000000    -58427.041    654.900
 OXIDANT     CO2                          0.0227000   -377967.709    654.900
 OXIDANT     CO                           0.0000000    -99912.083    654.900
 OXIDANT     H                            0.0000000    225414.331    654.900
 OXIDANT     H2                           0.0000000     10421.855    654.900
 OXIDANT     H2O                          0.0181000   -229313.019    654.900
 OXIDANT     O                            0.0000000    256795.218    654.900
 OXIDANT     O2                           0.9592000     11020.974    654.900
 OXIDANT     OH                           0.0000000     47830.931    654.900
 FUEL        PMMA                         1.0000000   -442140.000    293.150

 O/F=    0.94539  %FUEL= 51.403568  R,EQ.RATIO= 1.804056  PHI,EQ.RATIO= 2.114764

                 INJECTOR  COMB END  THROAT
 Pinj/P            1.0000   1.0071   1.7939
 P, BAR            7.7500   7.6956   4.3202
 T, K             2596.07  2594.46  2345.41
 RHO, KG/CU M    7.6168-1 7.5682-1 4.7109-1
 H, KJ/KG        -2316.29 -2319.88 -2877.91
 U, KJ/KG        -3333.77 -3336.72 -3794.97
 G, KJ/KG        -33241.4 -33229.4 -30820.4
 S, KJ/(KG)(K)    11.9123  11.9137  11.9137

 M, (1/n)          21.214   21.214   21.265
 (dLV/dLP)t      -1.00203 -1.00203 -1.00083
 (dLV/dLT)p        1.0454   1.0452   1.0201
 Cp, KJ/(KG)(K)    2.4340   2.4329   2.2066
 GAMMAs            1.2106   1.2106   1.2248
 SON VEL,M/SEC     1109.8   1109.5   1059.8
 MACH NUMBER        0.000    0.076    1.000

 PERFORMANCE PARAMETERS

 Ae/At                      7.7836   1.0000
 CSTAR, M/SEC               1546.8   1546.8
 CF                         0.0548   0.6852
 Ivac, M/SEC               12082.0   1925.1
 Isp, M/SEC                   84.8   1059.8


 MOLE FRACTIONS

 *CO              0.47228  0.47226  0.46844
 *CO2             0.07764  0.07767  0.08280
 *H               0.00629  0.00628  0.00276
 *H2              0.21446  0.21449  0.22109
 H2O              0.22759  0.22758  0.22437
 *O               0.00003  0.00003  0.00000
 *OH              0.00169  0.00168  0.00053
 *O2              0.00001  0.00001  0.00000

  * THERMODYNAMIC PROPERTIES FITTED TO 20000.K

    PRODUCTS WHICH WERE CONSIDERED BUT WHOSE MOLE FRACTIONS
    WERE LESS THAN 5.000000E-06 FOR ALL ASSIGNED CONDITIONS

 *C              *CH             CH2             CH3             CH2OH          
 CH3O            CH4             CH3OH           CH3OOH          COOH           
 *C2             C2H             C2H2,acetylene  C2H2,vinylidene CH2CO,ketene   
 O(CH)2O         HO(CO)2OH       C2H3,vinyl      CH3CO,acetyl    C2H4           
 C2H4O,ethylen-o CH3CHO,ethanal  CH3COOH         OHCH2COOH       C2H5           
 C2H6            C2H5OH          CH3OCH3         CH3O2CH3        C2O            
 *C3             C3H3,1-propynl  C3H3,2-propynl  C3H4,allene     C3H4,propyne   
 C3H4,cyclo-     C3H5,allyl      C3H6,propylene  C3H6,cyclo-     C3H6O,propylox 
 C3H6O,acetone   C3H6O,propanal  C3H7,n-propyl   C3H7,i-propyl   C3H8           
 C3H8O,1propanol C3H8O,2propanol C3O2            *C4             C4H2,butadiyne 
 C4H4,1,3-cyclo- C4H6,butadiene  C4H6,1butyne    C4H6,2butyne    C4H6,cyclo-    
 C4H8,1-butene   C4H8,cis2-buten C4H8,tr2-butene C4H8,isobutene  C4H8,cyclo-    
 (CH3COOH)2      C4H9,n-butyl    C4H9,i-butyl    C4H9,s-butyl    C4H9,t-butyl   
 C4H10,n-butane  C4H10,isobutane *C5             C5H6,1,3cyclo-  C5H8,cyclo-    
 C5H10,1-pentene C5H10,cyclo-    C5H11,pentyl    C5H11,t-pentyl  C5H12,n-pentane
 C5H12,i-pentane CH3C(CH3)2CH3   C6H2            C6H5,phenyl     C6H5O,phenoxy  
 C6H6            C6H5OH,phenol   C6H10,cyclo-    C6H12,1-hexene  C6H12,cyclo-   
 C6H13,n-hexyl   C6H14,n-hexane  C7H7,benzyl     C7H8            C7H8O,cresol-mx
 C7H14,1-heptene C7H15,n-heptyl  C7H16,n-heptane C7H16,2-methylh C8H8,styrene   
 C8H10,ethylbenz C8H16,1-octene  C8H17,n-octyl   C8H18,n-octane  C8H18,isooctane
 C9H19,n-nonyl   C10H8,naphthale C10H21,n-decyl  C12H9,o-bipheny C12H10,biphenyl
 HCO             HCCO            HO2             HCHO,formaldehy HCOOH          
 H2O2            (HCOOH)2        O3              C(gr)           H2O(cr)        
 H2O(L)         

 NOTE. WEIGHT FRACTION OF FUEL IN TOTAL FUELS AND OF OXIDANT IN TOTAL OXIDANTS






 WARNING!!  ASSIGNED pip =   0.00000 IS NOT PERMITTED
 TO BE LESS THAN  Pinj/Pc =  1.00706. POINT OMITTED (ROCKET)





              THEORETICAL ROCKET PERFORMANCE ASSUMING EQUILIBRIUM

            COMPOSITION DURING EXPANSION FROM FINITE AREA COMBUSTOR

 Pin =   112.4 PSIA
 Ac/At =  7.7836      Pinj/Pinf =  1.003514
 CASE =                

             REACTANT                    WT FRACTION      ENERGY      TEMP
                                          (SEE NOTE)     KJ/KG-MOL      K  
 OXIDANT     CH4                          0.0000000    -58427.041    654.900
 OXIDANT     CO2                          0.0227000   -377967.709    654.900
 OXIDANT     CO                           0.0000000    -99912.083    654.900
 OXIDANT     H                            0.0000000    225414.331    654.900
 OXIDANT     H2                           0.0000000     10421.855    654.900
 OXIDANT     H2O                          0.0181000   -229313.019    654.900
 OXIDANT     O                            0.0000000    256795.218    654.900
 OXIDANT     O2                           0.9592000     11020.974    654.900
 OXIDANT     OH                           0.0000000     47830.931    654.900
 FUEL        PMMA                         1.0000000   -442140.000    293.150

 O/F=    0.94539  %FUEL= 51.403568  R,EQ.RATIO= 1.804056  PHI,EQ.RATIO= 2.114764

                 INJECTOR  COMB END  THROAT
 Pinj/P            1.0000   1.0071   1.7939
 P, BAR            7.7500   7.6956   4.3202
 T, K             2596.07  2594.46  2345.41
 RHO, KG/CU M    7.6168-1 7.5682-1 4.7109-1
 H, KJ/KG        -2316.29 -2319.88 -2877.91
 U, KJ/KG        -3333.77 -3336.72 -3794.97
 G, KJ/KG        -33241.4 -33229.4 -30820.4
 S, KJ/(KG)(K)    11.9123  11.9137  11.9137

 M, (1/n)          21.214   21.214   21.265
 (dLV/dLP)t      -1.00203 -1.00203 -1.00083
 (dLV/dLT)p        1.0454   1.0452   1.0201
 Cp, KJ/(KG)(K)    2.4340   2.4329   2.2066
 GAMMAs            1.2106   1.2106   1.2248
 SON VEL,M/SEC     1109.8   1109.5   1059.8
 MACH NUMBER        0.000    0.076    1.000

 PERFORMANCE PARAMETERS

 Ae/At                      7.7836   1.0000
 CSTAR, M/SEC               1546.8   1546.8
 CF                         0.0548   0.6852
 Ivac, M/SEC               12082.0   1925.1
 Isp, M/SEC                   84.8   1059.8


 MOLE FRACTIONS

 *CO              0.47228  0.47226  0.46844
 *CO2             0.07764  0.07767  0.08280
 *H               0.00629  0.00628  0.00276
 *H2              0.21446  0.21449  0.22109
 H2O              0.22759  0.22758  0.22437
 *O               0.00003  0.00003  0.00000
 *OH              0.00169  0.00168  0.00053
 *O2              0.00001  0.00001  0.00000

  * THERMODYNAMIC PROPERTIES FITTED TO 20000.K

    PRODUCTS WHICH WERE CONSIDERED BUT WHOSE MOLE FRACTIONS
    WERE LESS THAN 5.000000E-06 FOR ALL ASSIGNED CONDITIONS

 *C              *CH             CH2             CH3             CH2OH          
 CH3O            CH4             CH3OH           CH3OOH          COOH           
 *C2             C2H             C2H2,acetylene  C2H2,vinylidene CH2CO,ketene   
 O(CH)2O         HO(CO)2OH       C2H3,vinyl      CH3CO,acetyl    C2H4           
 C2H4O,ethylen-o CH3CHO,ethanal  CH3COOH         OHCH2COOH       C2H5           
 C2H6            C2H5OH          CH3OCH3         CH3O2CH3        C2O            
 *C3             C3H3,1-propynl  C3H3,2-propynl  C3H4,allene     C3H4,propyne   
 C3H4,cyclo-     C3H5,allyl      C3H6,propylene  C3H6,cyclo-     C3H6O,propylox 
 C3H6O,acetone   C3H6O,propanal  C3H7,n-propyl   C3H7,i-propyl   C3H8           
 C3H8O,1propanol C3H8O,2propanol C3O2            *C4             C4H2,butadiyne 
 C4H4,1,3-cyclo- C4H6,butadiene  C4H6,1butyne    C4H6,2butyne    C4H6,cyclo-    
 C4H8,1-butene   C4H8,cis2-buten C4H8,tr2-butene C4H8,isobutene  C4H8,cyclo-    
 (CH3COOH)2      C4H9,n-butyl    C4H9,i-butyl    C4H9,s-butyl    C4H9,t-butyl   
 C4H10,n-butane  C4H10,isobutane *C5             C5H6,1,3cyclo-  C5H8,cyclo-    
 C5H10,1-pentene C5H10,cyclo-    C5H11,pentyl    C5H11,t-pentyl  C5H12,n-pentane
 C5H12,i-pentane CH3C(CH3)2CH3   C6H2            C6H5,phenyl     C6H5O,phenoxy  
 C6H6            C6H5OH,phenol   C6H10,cyclo-    C6H12,1-hexene  C6H12,cyclo-   
 C6H13,n-hexyl   C6H14,n-hexane  C7H7,benzyl     C7H8            C7H8O,cresol-mx
 C7H14,1-heptene C7H15,n-heptyl  C7H16,n-heptane C7H16,2-methylh C8H8,styrene   
 C8H10,ethylbenz C8H16,1-octene  C8H17,n-octyl   C8H18,n-octane  C8H18,isooctane
 C9H19,n-nonyl   C10H8,naphthale C10H21,n-decyl  C12H9,o-bipheny C12H10,biphenyl
 HCO             HCCO            HO2             HCHO,formaldehy HCOOH          
 H2O2            (HCOOH)2        O3              C(gr)           H2O(cr)        
 H2O(L)         

 NOTE. WEIGHT FRACTION OF FUEL IN TOTAL FUELS AND OF OXIDANT IN TOTAL OXIDANTS






 WARNING!!  ASSIGNED pip =   0.00000 IS NOT PERMITTED
 TO BE LESS THAN  Pinj/Pc =  1.00706. POINT OMITTED (ROCKET)





              THEORETICAL ROCKET PERFORMANCE ASSUMING EQUILIBRIUM

            COMPOSITION DURING EXPANSION FROM FINITE AREA COMBUSTOR

 Pin =   112.4 PSIA
 Ac/At =  7.7836      Pinj/Pinf =  1.003514
 CASE =                

             REACTANT                    WT FRACTION      ENERGY      TEMP
                                          (SEE NOTE)     KJ/KG-MOL      K  
 OXIDANT     CH4                          0.0000000    -58427.041    654.900
 OXIDANT     CO2                          0.0227000   -377967.709    654.900
 OXIDANT     CO                           0.0000000    -99912.083    654.900
 OXIDANT     H                            0.0000000    225414.331    654.900
 OXIDANT     H2                           0.0000000     10421.855    654.900
 OXIDANT     H2O                          0.0181000   -229313.019    654.900
 OXIDANT     O                            0.0000000    256795.218    654.900
 OXIDANT     O2                           0.9592000     11020.974    654.900
 OXIDANT     OH                           0.0000000     47830.931    654.900
 FUEL        PMMA                         1.0000000   -442140.000    293.150

 O/F=    0.94539  %FUEL= 51.403568  R,EQ.RATIO= 1.804056  PHI,EQ.RATIO= 2.114764

                 INJECTOR  COMB END  THROAT
 Pinj/P            1.0000   1.0071   1.7939
 P, BAR            7.7500   7.6956   4.3202
 T, K             2596.07  2594.46  2345.41
 RHO, KG/CU M    7.6168-1 7.5682-1 4.7109-1
 H, KJ/KG        -2316.29 -2319.88 -2877.91
 U, KJ/KG        -3333.77 -3336.72 -3794.97
 G, KJ/KG        -33241.4 -33229.4 -30820.4
 S, KJ/(KG)(K)    11.9123  11.9137  11.9137

 M, (1/n)          21.214   21.214   21.265
 (dLV/dLP)t      -1.00203 -1.00203 -1.00083
 (dLV/dLT)p        1.0454   1.0452   1.0201
 Cp, KJ/(KG)(K)    2.4340   2.4329   2.2066
 GAMMAs            1.2106   1.2106   1.2248
 SON VEL,M/SEC     1109.8   1109.5   1059.8
 MACH NUMBER        0.000    0.076    1.000

 PERFORMANCE PARAMETERS

 Ae/At                      7.7836   1.0000
 CSTAR, M/SEC               1546.8   1546.8
 CF                         0.0548   0.6852
 Ivac, M/SEC               12082.0   1925.1
 Isp, M/SEC                   84.8   1059.8


 MOLE FRACTIONS

 *CO              0.47228  0.47226  0.46844
 *CO2             0.07764  0.07767  0.08280
 *H               0.00629  0.00628  0.00276
 *H2              0.21446  0.21449  0.22109
 H2O              0.22759  0.22758  0.22437
 *O               0.00003  0.00003  0.00000
 *OH              0.00169  0.00168  0.00053
 *O2              0.00001  0.00001  0.00000

  * THERMODYNAMIC PROPERTIES FITTED TO 20000.K

    PRODUCTS WHICH WERE CONSIDERED BUT WHOSE MOLE FRACTIONS
    WERE LESS THAN 5.000000E-06 FOR ALL ASSIGNED CONDITIONS

 *C              *CH             CH2             CH3             CH2OH          
 CH3O            CH4             CH3OH           CH3OOH          COOH           
 *C2             C2H             C2H2,acetylene  C2H2,vinylidene CH2CO,ketene   
 O(CH)2O         HO(CO)2OH       C2H3,vinyl      CH3CO,acetyl    C2H4           
 C2H4O,ethylen-o CH3CHO,ethanal  CH3COOH         OHCH2COOH       C2H5           
 C2H6            C2H5OH          CH3OCH3         CH3O2CH3        C2O            
 *C3             C3H3,1-propynl  C3H3,2-propynl  C3H4,allene     C3H4,propyne   
 C3H4,cyclo-     C3H5,allyl      C3H6,propylene  C3H6,cyclo-     C3H6O,propylox 
 C3H6O,acetone   C3H6O,propanal  C3H7,n-propyl   C3H7,i-propyl   C3H8           
 C3H8O,1propanol C3H8O,2propanol C3O2            *C4             C4H2,butadiyne 
 C4H4,1,3-cyclo- C4H6,butadiene  C4H6,1butyne    C4H6,2butyne    C4H6,cyclo-    
 C4H8,1-butene   C4H8,cis2-buten C4H8,tr2-butene C4H8,isobutene  C4H8,cyclo-    
 (CH3COOH)2      C4H9,n-butyl    C4H9,i-butyl    C4H9,s-butyl    C4H9,t-butyl   
 C4H10,n-butane  C4H10,isobutane *C5             C5H6,1,3cyclo-  C5H8,cyclo-    
 C5H10,1-pentene C5H10,cyclo-    C5H11,pentyl    C5H11,t-pentyl  C5H12,n-pentane
 C5H12,i-pentane CH3C(CH3)2CH3   C6H2            C6H5,phenyl     C6H5O,phenoxy  
 C6H6            C6H5OH,phenol   C6H10,cyclo-    C6H12,1-hexene  C6H12,cyclo-   
 C6H13,n-hexyl   C6H14,n-hexane  C7H7,benzyl     C7H8            C7H8O,cresol-mx
 C7H14,1-heptene C7H15,n-heptyl  C7H16,n-heptane C7H16,2-methylh C8H8,styrene   
 C8H10,ethylbenz C8H16,1-octene  C8H17,n-octyl   C8H18,n-octane  C8H18,isooctane
 C9H19,n-nonyl   C10H8,naphthale C10H21,n-decyl  C12H9,o-bipheny C12H10,biphenyl
 HCO             HCCO            HO2             HCHO,formaldehy HCOOH          
 H2O2            (HCOOH)2        O3              C(gr)           H2O(cr)        
 H2O(L)         

 NOTE. WEIGHT FRACTION OF FUEL IN TOTAL FUELS AND OF OXIDANT IN TOTAL OXIDANTS






 WARNING!!  ASSIGNED pip =   0.00000 IS NOT PERMITTED
 TO BE LESS THAN  Pinj/Pc =  1.00706. POINT OMITTED (ROCKET)





              THEORETICAL ROCKET PERFORMANCE ASSUMING EQUILIBRIUM

            COMPOSITION DURING EXPANSION FROM FINITE AREA COMBUSTOR

 Pin =   112.4 PSIA
 Ac/At =  7.7836      Pinj/Pinf =  1.003514
 CASE =                

             REACTANT                    WT FRACTION      ENERGY      TEMP
                                          (SEE NOTE)     KJ/KG-MOL      K  
 OXIDANT     CH4                          0.0000000    -58427.041    654.900
 OXIDANT     CO2                          0.0227000   -377967.709    654.900
 OXIDANT     CO                           0.0000000    -99912.083    654.900
 OXIDANT     H                            0.0000000    225414.331    654.900
 OXIDANT     H2                           0.0000000     10421.855    654.900
 OXIDANT     H2O                          0.0181000   -229313.019    654.900
 OXIDANT     O                            0.0000000    256795.218    654.900
 OXIDANT     O2                           0.9592000     11020.974    654.900
 OXIDANT     OH                           0.0000000     47830.931    654.900
 FUEL        PMMA                         1.0000000   -442140.000    293.150

 O/F=    0.94539  %FUEL= 51.403568  R,EQ.RATIO= 1.804056  PHI,EQ.RATIO= 2.114764

                 INJECTOR  COMB END  THROAT
 Pinj/P            1.0000   1.0071   1.7939
 P, BAR            7.7500   7.6956   4.3202
 T, K             2596.07  2594.46  2345.41
 RHO, KG/CU M    7.6168-1 7.5682-1 4.7109-1
 H, KJ/KG        -2316.29 -2319.88 -2877.91
 U, KJ/KG        -3333.77 -3336.72 -3794.97
 G, KJ/KG        -33241.4 -33229.4 -30820.4
 S, KJ/(KG)(K)    11.9123  11.9137  11.9137

 M, (1/n)          21.214   21.214   21.265
 (dLV/dLP)t      -1.00203 -1.00203 -1.00083
 (dLV/dLT)p        1.0454   1.0452   1.0201
 Cp, KJ/(KG)(K)    2.4340   2.4329   2.2066
 GAMMAs            1.2106   1.2106   1.2248
 SON VEL,M/SEC     1109.8   1109.5   1059.8
 MACH NUMBER        0.000    0.076    1.000

 PERFORMANCE PARAMETERS

 Ae/At                      7.7836   1.0000
 CSTAR, M/SEC               1546.8   1546.8
 CF                         0.0548   0.6852
 Ivac, M/SEC               12082.0   1925.1
 Isp, M/SEC                   84.8   1059.8


 MOLE FRACTIONS

 *CO              0.47228  0.47226  0.46844
 *CO2             0.07764  0.07767  0.08280
 *H               0.00629  0.00628  0.00276
 *H2              0.21446  0.21449  0.22109
 H2O              0.22759  0.22758  0.22437
 *O               0.00003  0.00003  0.00000
 *OH              0.00169  0.00168  0.00053
 *O2              0.00001  0.00001  0.00000

  * THERMODYNAMIC PROPERTIES FITTED TO 20000.K

    PRODUCTS WHICH WERE CONSIDERED BUT WHOSE MOLE FRACTIONS
    WERE LESS THAN 5.000000E-06 FOR ALL ASSIGNED CONDITIONS

 *C              *CH             CH2             CH3             CH2OH          
 CH3O            CH4             CH3OH           CH3OOH          COOH           
 *C2             C2H             C2H2,acetylene  C2H2,vinylidene CH2CO,ketene   
 O(CH)2O         HO(CO)2OH       C2H3,vinyl      CH3CO,acetyl    C2H4           
 C2H4O,ethylen-o CH3CHO,ethanal  CH3COOH         OHCH2COOH       C2H5           
 C2H6            C2H5OH          CH3OCH3         CH3O2CH3        C2O            
 *C3             C3H3,1-propynl  C3H3,2-propynl  C3H4,allene     C3H4,propyne   
 C3H4,cyclo-     C3H5,allyl      C3H6,propylene  C3H6,cyclo-     C3H6O,propylox 
 C3H6O,acetone   C3H6O,propanal  C3H7,n-propyl   C3H7,i-propyl   C3H8           
 C3H8O,1propanol C3H8O,2propanol C3O2            *C4             C4H2,butadiyne 
 C4H4,1,3-cyclo- C4H6,butadiene  C4H6,1butyne    C4H6,2butyne    C4H6,cyclo-    
 C4H8,1-butene   C4H8,cis2-buten C4H8,tr2-butene C4H8,isobutene  C4H8,cyclo-    
 (CH3COOH)2      C4H9,n-butyl    C4H9,i-butyl    C4H9,s-butyl    C4H9,t-butyl   
 C4H10,n-butane  C4H10,isobutane *C5             C5H6,1,3cyclo-  C5H8,cyclo-    
 C5H10,1-pentene C5H10,cyclo-    C5H11,pentyl    C5H11,t-pentyl  C5H12,n-pentane
 C5H12,i-pentane CH3C(CH3)2CH3   C6H2            C6H5,phenyl     C6H5O,phenoxy  
 C6H6            C6H5OH,phenol   C6H10,cyclo-    C6H12,1-hexene  C6H12,cyclo-   
 C6H13,n-hexyl   C6H14,n-hexane  C7H7,benzyl     C7H8            C7H8O,cresol-mx
 C7H14,1-heptene C7H15,n-heptyl  C7H16,n-heptane C7H16,2-methylh C8H8,styrene   
 C8H10,ethylbenz C8H16,1-octene  C8H17,n-octyl   C8H18,n-octane  C8H18,isooctane
 C9H19,n-nonyl   C10H8,naphthale C10H21,n-decyl  C12H9,o-bipheny C12H10,biphenyl
 HCO             HCCO            HO2             HCHO,formaldehy HCOOH          
 H2O2            (HCOOH)2        O3              C(gr)           H2O(cr)        
 H2O(L)         

 NOTE. WEIGHT FRACTION OF FUEL IN TOTAL FUELS AND OF OXIDANT IN TOTAL OXIDANTS






 WARNING!!  ASSIGNED pip =   0.00000 IS NOT PERMITTED
 TO BE LESS THAN  Pinj/Pc =  1.00706. POINT OMITTED (ROCKET)





              THEORETICAL ROCKET PERFORMANCE ASSUMING EQUILIBRIUM

            COMPOSITION DURING EXPANSION FROM FINITE AREA COMBUSTOR

 Pin =   112.4 PSIA
 Ac/At =  7.7836      Pinj/Pinf =  1.003514
 CASE =                

             REACTANT                    WT FRACTION      ENERGY      TEMP
                                          (SEE NOTE)     KJ/KG-MOL      K  
 OXIDANT     CH4                          0.0000000    -58427.041    654.900
 OXIDANT     CO2                          0.0227000   -377967.709    654.900
 OXIDANT     CO                           0.0000000    -99912.083    654.900
 OXIDANT     H                            0.0000000    225414.331    654.900
 OXIDANT     H2                           0.0000000     10421.855    654.900
 OXIDANT     H2O                          0.0181000   -229313.019    654.900
 OXIDANT     O                            0.0000000    256795.218    654.900
 OXIDANT     O2                           0.9592000     11020.974    654.900
 OXIDANT     OH                           0.0000000     47830.931    654.900
 FUEL        PMMA                         1.0000000   -442140.000    293.150

 O/F=    0.94539  %FUEL= 51.403568  R,EQ.RATIO= 1.804056  PHI,EQ.RATIO= 2.114764

                 INJECTOR  COMB END  THROAT
 Pinj/P            1.0000   1.0071   1.7939
 P, BAR            7.7500   7.6956   4.3202
 T, K             2596.07  2594.46  2345.41
 RHO, KG/CU M    7.6168-1 7.5682-1 4.7109-1
 H, KJ/KG        -2316.29 -2319.88 -2877.91
 U, KJ/KG        -3333.77 -3336.72 -3794.97
 G, KJ/KG        -33241.4 -33229.4 -30820.4
 S, KJ/(KG)(K)    11.9123  11.9137  11.9137

 M, (1/n)          21.214   21.214   21.265
 (dLV/dLP)t      -1.00203 -1.00203 -1.00083
 (dLV/dLT)p        1.0454   1.0452   1.0201
 Cp, KJ/(KG)(K)    2.4340   2.4329   2.2066
 GAMMAs            1.2106   1.2106   1.2248
 SON VEL,M/SEC     1109.8   1109.5   1059.8
 MACH NUMBER        0.000    0.076    1.000

 PERFORMANCE PARAMETERS

 Ae/At                      7.7836   1.0000
 CSTAR, M/SEC               1546.8   1546.8
 CF                         0.0548   0.6852
 Ivac, M/SEC               12082.0   1925.1
 Isp, M/SEC                   84.8   1059.8


 MOLE FRACTIONS

 *CO              0.47228  0.47226  0.46844
 *CO2             0.07764  0.07767  0.08280
 *H               0.00629  0.00628  0.00276
 *H2              0.21446  0.21449  0.22109
 H2O              0.22759  0.22758  0.22437
 *O               0.00003  0.00003  0.00000
 *OH              0.00169  0.00168  0.00053
 *O2              0.00001  0.00001  0.00000

  * THERMODYNAMIC PROPERTIES FITTED TO 20000.K

    PRODUCTS WHICH WERE CONSIDERED BUT WHOSE MOLE FRACTIONS
    WERE LESS THAN 5.000000E-06 FOR ALL ASSIGNED CONDITIONS

 *C              *CH             CH2             CH3             CH2OH          
 CH3O            CH4             CH3OH           CH3OOH          COOH           
 *C2             C2H             C2H2,acetylene  C2H2,vinylidene CH2CO,ketene   
 O(CH)2O         HO(CO)2OH       C2H3,vinyl      CH3CO,acetyl    C2H4           
 C2H4O,ethylen-o CH3CHO,ethanal  CH3COOH         OHCH2COOH       C2H5           
 C2H6            C2H5OH          CH3OCH3         CH3O2CH3        C2O            
 *C3             C3H3,1-propynl  C3H3,2-propynl  C3H4,allene     C3H4,propyne   
 C3H4,cyclo-     C3H5,allyl      C3H6,propylene  C3H6,cyclo-     C3H6O,propylox 
 C3H6O,acetone   C3H6O,propanal  C3H7,n-propyl   C3H7,i-propyl   C3H8           
 C3H8O,1propanol C3H8O,2propanol C3O2            *C4             C4H2,butadiyne 
 C4H4,1,3-cyclo- C4H6,butadiene  C4H6,1butyne    C4H6,2butyne    C4H6,cyclo-    
 C4H8,1-butene   C4H8,cis2-buten C4H8,tr2-butene C4H8,isobutene  C4H8,cyclo-    
 (CH3COOH)2      C4H9,n-butyl    C4H9,i-butyl    C4H9,s-butyl    C4H9,t-butyl   
 C4H10,n-butane  C4H10,isobutane *C5             C5H6,1,3cyclo-  C5H8,cyclo-    
 C5H10,1-pentene C5H10,cyclo-    C5H11,pentyl    C5H11,t-pentyl  C5H12,n-pentane
 C5H12,i-pentane CH3C(CH3)2CH3   C6H2            C6H5,phenyl     C6H5O,phenoxy  
 C6H6            C6H5OH,phenol   C6H10,cyclo-    C6H12,1-hexene  C6H12,cyclo-   
 C6H13,n-hexyl   C6H14,n-hexane  C7H7,benzyl     C7H8            C7H8O,cresol-mx
 C7H14,1-heptene C7H15,n-heptyl  C7H16,n-heptane C7H16,2-methylh C8H8,styrene   
 C8H10,ethylbenz C8H16,1-octene  C8H17,n-octyl   C8H18,n-octane  C8H18,isooctane
 C9H19,n-nonyl   C10H8,naphthale C10H21,n-decyl  C12H9,o-bipheny C12H10,biphenyl
 HCO             HCCO            HO2             HCHO,formaldehy HCOOH          
 H2O2            (HCOOH)2        O3              C(gr)           H2O(cr)        
 H2O(L)         

 NOTE. WEIGHT FRACTION OF FUEL IN TOTAL FUELS AND OF OXIDANT IN TOTAL OXIDANTS






 WARNING!!  ASSIGNED pip =   0.00000 IS NOT PERMITTED
 TO BE LESS THAN  Pinj/Pc =  1.00706. POINT OMITTED (ROCKET)





              THEORETICAL ROCKET PERFORMANCE ASSUMING EQUILIBRIUM

            COMPOSITION DURING EXPANSION FROM FINITE AREA COMBUSTOR

 Pin =   112.4 PSIA
 Ac/At =  7.7836      Pinj/Pinf =  1.003514
 CASE =                

             REACTANT                    WT FRACTION      ENERGY      TEMP
                                          (SEE NOTE)     KJ/KG-MOL      K  
 OXIDANT     CH4                          0.0000000    -58427.041    654.900
 OXIDANT     CO2                          0.0227000   -377967.709    654.900
 OXIDANT     CO                           0.0000000    -99912.083    654.900
 OXIDANT     H                            0.0000000    225414.331    654.900
 OXIDANT     H2                           0.0000000     10421.855    654.900
 OXIDANT     H2O                          0.0181000   -229313.019    654.900
 OXIDANT     O                            0.0000000    256795.218    654.900
 OXIDANT     O2                           0.9592000     11020.974    654.900
 OXIDANT     OH                           0.0000000     47830.931    654.900
 FUEL        PMMA                         1.0000000   -442140.000    293.150

 O/F=    0.94539  %FUEL= 51.403568  R,EQ.RATIO= 1.804056  PHI,EQ.RATIO= 2.114764

                 INJECTOR  COMB END  THROAT
 Pinj/P            1.0000   1.0071   1.7939
 P, BAR            7.7500   7.6956   4.3202
 T, K             2596.07  2594.46  2345.41
 RHO, KG/CU M    7.6168-1 7.5682-1 4.7109-1
 H, KJ/KG        -2316.29 -2319.88 -2877.91
 U, KJ/KG        -3333.77 -3336.72 -3794.97
 G, KJ/KG        -33241.4 -33229.4 -30820.4
 S, KJ/(KG)(K)    11.9123  11.9137  11.9137

 M, (1/n)          21.214   21.214   21.265
 (dLV/dLP)t      -1.00203 -1.00203 -1.00083
 (dLV/dLT)p        1.0454   1.0452   1.0201
 Cp, KJ/(KG)(K)    2.4340   2.4329   2.2066
 GAMMAs            1.2106   1.2106   1.2248
 SON VEL,M/SEC     1109.8   1109.5   1059.8
 MACH NUMBER        0.000    0.076    1.000

 PERFORMANCE PARAMETERS

 Ae/At                      7.7836   1.0000
 CSTAR, M/SEC               1546.8   1546.8
 CF                         0.0548   0.6852
 Ivac, M/SEC               12082.0   1925.1
 Isp, M/SEC                   84.8   1059.8


 MOLE FRACTIONS

 *CO              0.47228  0.47226  0.46844
 *CO2             0.07764  0.07767  0.08280
 *H               0.00629  0.00628  0.00276
 *H2              0.21446  0.21449  0.22109
 H2O              0.22759  0.22758  0.22437
 *O               0.00003  0.00003  0.00000
 *OH              0.00169  0.00168  0.00053
 *O2              0.00001  0.00001  0.00000

  * THERMODYNAMIC PROPERTIES FITTED TO 20000.K

    PRODUCTS WHICH WERE CONSIDERED BUT WHOSE MOLE FRACTIONS
    WERE LESS THAN 5.000000E-06 FOR ALL ASSIGNED CONDITIONS

 *C              *CH             CH2             CH3             CH2OH          
 CH3O            CH4             CH3OH           CH3OOH          COOH           
 *C2             C2H             C2H2,acetylene  C2H2,vinylidene CH2CO,ketene   
 O(CH)2O         HO(CO)2OH       C2H3,vinyl      CH3CO,acetyl    C2H4           
 C2H4O,ethylen-o CH3CHO,ethanal  CH3COOH         OHCH2COOH       C2H5           
 C2H6            C2H5OH          CH3OCH3         CH3O2CH3        C2O            
 *C3             C3H3,1-propynl  C3H3,2-propynl  C3H4,allene     C3H4,propyne   
 C3H4,cyclo-     C3H5,allyl      C3H6,propylene  C3H6,cyclo-     C3H6O,propylox 
 C3H6O,acetone   C3H6O,propanal  C3H7,n-propyl   C3H7,i-propyl   C3H8           
 C3H8O,1propanol C3H8O,2propanol C3O2            *C4             C4H2,butadiyne 
 C4H4,1,3-cyclo- C4H6,butadiene  C4H6,1butyne    C4H6,2butyne    C4H6,cyclo-    
 C4H8,1-butene   C4H8,cis2-buten C4H8,tr2-butene C4H8,isobutene  C4H8,cyclo-    
 (CH3COOH)2      C4H9,n-butyl    C4H9,i-butyl    C4H9,s-butyl    C4H9,t-butyl   
 C4H10,n-butane  C4H10,isobutane *C5             C5H6,1,3cyclo-  C5H8,cyclo-    
 C5H10,1-pentene C5H10,cyclo-    C5H11,pentyl    C5H11,t-pentyl  C5H12,n-pentane
 C5H12,i-pentane CH3C(CH3)2CH3   C6H2            C6H5,phenyl     C6H5O,phenoxy  
 C6H6            C6H5OH,phenol   C6H10,cyclo-    C6H12,1-hexene  C6H12,cyclo-   
 C6H13,n-hexyl   C6H14,n-hexane  C7H7,benzyl     C7H8            C7H8O,cresol-mx
 C7H14,1-heptene C7H15,n-heptyl  C7H16,n-heptane C7H16,2-methylh C8H8,styrene   
 C8H10,ethylbenz C8H16,1-octene  C8H17,n-octyl   C8H18,n-octane  C8H18,isooctane
 C9H19,n-nonyl   C10H8,naphthale C10H21,n-decyl  C12H9,o-bipheny C12H10,biphenyl
 HCO             HCCO            HO2             HCHO,formaldehy HCOOH          
 H2O2            (HCOOH)2        O3              C(gr)           H2O(cr)        
 H2O(L)         

 NOTE. WEIGHT FRACTION OF FUEL IN TOTAL FUELS AND OF OXIDANT IN TOTAL OXIDANTS






 WARNING!!  ASSIGNED pip =   0.00000 IS NOT PERMITTED
 TO BE LESS THAN  Pinj/Pc =  1.00706. POINT OMITTED (ROCKET)





              THEORETICAL ROCKET PERFORMANCE ASSUMING EQUILIBRIUM

            COMPOSITION DURING EXPANSION FROM FINITE AREA COMBUSTOR

 Pin =   112.4 PSIA
 Ac/At =  7.7836      Pinj/Pinf =  1.003514
 CASE =                

             REACTANT                    WT FRACTION      ENERGY      TEMP
                                          (SEE NOTE)     KJ/KG-MOL      K  
 OXIDANT     CH4                          0.0000000    -58427.041    654.900
 OXIDANT     CO2                          0.0227000   -377967.709    654.900
 OXIDANT     CO                           0.0000000    -99912.083    654.900
 OXIDANT     H                            0.0000000    225414.331    654.900
 OXIDANT     H2                           0.0000000     10421.855    654.900
 OXIDANT     H2O                          0.0181000   -229313.019    654.900
 OXIDANT     O                            0.0000000    256795.218    654.900
 OXIDANT     O2                           0.9592000     11020.974    654.900
 OXIDANT     OH                           0.0000000     47830.931    654.900
 FUEL        PMMA                         1.0000000   -442140.000    293.150

 O/F=    0.94539  %FUEL= 51.403568  R,EQ.RATIO= 1.804056  PHI,EQ.RATIO= 2.114764

                 INJECTOR  COMB END  THROAT
 Pinj/P            1.0000   1.0071   1.7939
 P, BAR            7.7500   7.6956   4.3202
 T, K             2596.07  2594.46  2345.41
 RHO, KG/CU M    7.6168-1 7.5682-1 4.7109-1
 H, KJ/KG        -2316.29 -2319.88 -2877.91
 U, KJ/KG        -3333.77 -3336.72 -3794.97
 G, KJ/KG        -33241.4 -33229.4 -30820.4
 S, KJ/(KG)(K)    11.9123  11.9137  11.9137

 M, (1/n)          21.214   21.214   21.265
 (dLV/dLP)t      -1.00203 -1.00203 -1.00083
 (dLV/dLT)p        1.0454   1.0452   1.0201
 Cp, KJ/(KG)(K)    2.4340   2.4329   2.2066
 GAMMAs            1.2106   1.2106   1.2248
 SON VEL,M/SEC     1109.8   1109.5   1059.8
 MACH NUMBER        0.000    0.076    1.000

 PERFORMANCE PARAMETERS

 Ae/At                      7.7836   1.0000
 CSTAR, M/SEC               1546.8   1546.8
 CF                         0.0548   0.6852
 Ivac, M/SEC               12082.0   1925.1
 Isp, M/SEC                   84.8   1059.8


 MOLE FRACTIONS

 *CO              0.47228  0.47226  0.46844
 *CO2             0.07764  0.07767  0.08280
 *H               0.00629  0.00628  0.00276
 *H2              0.21446  0.21449  0.22109
 H2O              0.22759  0.22758  0.22437
 *O               0.00003  0.00003  0.00000
 *OH              0.00169  0.00168  0.00053
 *O2              0.00001  0.00001  0.00000

  * THERMODYNAMIC PROPERTIES FITTED TO 20000.K

    PRODUCTS WHICH WERE CONSIDERED BUT WHOSE MOLE FRACTIONS
    WERE LESS THAN 5.000000E-06 FOR ALL ASSIGNED CONDITIONS

 *C              *CH             CH2             CH3             CH2OH          
 CH3O            CH4             CH3OH           CH3OOH          COOH           
 *C2             C2H             C2H2,acetylene  C2H2,vinylidene CH2CO,ketene   
 O(CH)2O         HO(CO)2OH       C2H3,vinyl      CH3CO,acetyl    C2H4           
 C2H4O,ethylen-o CH3CHO,ethanal  CH3COOH         OHCH2COOH       C2H5           
 C2H6            C2H5OH          CH3OCH3         CH3O2CH3        C2O            
 *C3             C3H3,1-propynl  C3H3,2-propynl  C3H4,allene     C3H4,propyne   
 C3H4,cyclo-     C3H5,allyl      C3H6,propylene  C3H6,cyclo-     C3H6O,propylox 
 C3H6O,acetone   C3H6O,propanal  C3H7,n-propyl   C3H7,i-propyl   C3H8           
 C3H8O,1propanol C3H8O,2propanol C3O2            *C4             C4H2,butadiyne 
 C4H4,1,3-cyclo- C4H6,butadiene  C4H6,1butyne    C4H6,2butyne    C4H6,cyclo-    
 C4H8,1-butene   C4H8,cis2-buten C4H8,tr2-butene C4H8,isobutene  C4H8,cyclo-    
 (CH3COOH)2      C4H9,n-butyl    C4H9,i-butyl    C4H9,s-butyl    C4H9,t-butyl   
 C4H10,n-butane  C4H10,isobutane *C5             C5H6,1,3cyclo-  C5H8,cyclo-    
 C5H10,1-pentene C5H10,cyclo-    C5H11,pentyl    C5H11,t-pentyl  C5H12,n-pentane
 C5H12,i-pentane CH3C(CH3)2CH3   C6H2            C6H5,phenyl     C6H5O,phenoxy  
 C6H6            C6H5OH,phenol   C6H10,cyclo-    C6H12,1-hexene  C6H12,cyclo-   
 C6H13,n-hexyl   C6H14,n-hexane  C7H7,benzyl     C7H8            C7H8O,cresol-mx
 C7H14,1-heptene C7H15,n-heptyl  C7H16,n-heptane C7H16,2-methylh C8H8,styrene   
 C8H10,ethylbenz C8H16,1-octene  C8H17,n-octyl   C8H18,n-octane  C8H18,isooctane
 C9H19,n-nonyl   C10H8,naphthale C10H21,n-decyl  C12H9,o-bipheny C12H10,biphenyl
 HCO             HCCO            HO2             HCHO,formaldehy HCOOH          
 H2O2            (HCOOH)2        O3              C(gr)           H2O(cr)        
 H2O(L)         

 NOTE. WEIGHT FRACTION OF FUEL IN TOTAL FUELS AND OF OXIDANT IN TOTAL OXIDANTS






 WARNING!!  ASSIGNED pip =   0.00000 IS NOT PERMITTED
 TO BE LESS THAN  Pinj/Pc =  1.00706. POINT OMITTED (ROCKET)





              THEORETICAL ROCKET PERFORMANCE ASSUMING EQUILIBRIUM

            COMPOSITION DURING EXPANSION FROM FINITE AREA COMBUSTOR

 Pin =   112.4 PSIA
 Ac/At =  7.7836      Pinj/Pinf =  1.003514
 CASE =                

             REACTANT                    WT FRACTION      ENERGY      TEMP
                                          (SEE NOTE)     KJ/KG-MOL      K  
 OXIDANT     CH4                          0.0000000    -58427.041    654.900
 OXIDANT     CO2                          0.0227000   -377967.709    654.900
 OXIDANT     CO                           0.0000000    -99912.083    654.900
 OXIDANT     H                            0.0000000    225414.331    654.900
 OXIDANT     H2                           0.0000000     10421.855    654.900
 OXIDANT     H2O                          0.0181000   -229313.019    654.900
 OXIDANT     O                            0.0000000    256795.218    654.900
 OXIDANT     O2                           0.9592000     11020.974    654.900
 OXIDANT     OH                           0.0000000     47830.931    654.900
 FUEL        PMMA                         1.0000000   -442140.000    293.150

 O/F=    0.94539  %FUEL= 51.403568  R,EQ.RATIO= 1.804056  PHI,EQ.RATIO= 2.114764

                 INJECTOR  COMB END  THROAT
 Pinj/P            1.0000   1.0071   1.7939
 P, BAR            7.7500   7.6956   4.3202
 T, K             2596.07  2594.46  2345.41
 RHO, KG/CU M    7.6168-1 7.5682-1 4.7109-1
 H, KJ/KG        -2316.29 -2319.88 -2877.91
 U, KJ/KG        -3333.77 -3336.72 -3794.97
 G, KJ/KG        -33241.4 -33229.4 -30820.4
 S, KJ/(KG)(K)    11.9123  11.9137  11.9137

 M, (1/n)          21.214   21.214   21.265
 (dLV/dLP)t      -1.00203 -1.00203 -1.00083
 (dLV/dLT)p        1.0454   1.0452   1.0201
 Cp, KJ/(KG)(K)    2.4340   2.4329   2.2066
 GAMMAs            1.2106   1.2106   1.2248
 SON VEL,M/SEC     1109.8   1109.5   1059.8
 MACH NUMBER        0.000    0.076    1.000

 PERFORMANCE PARAMETERS

 Ae/At                      7.7836   1.0000
 CSTAR, M/SEC               1546.8   1546.8
 CF                         0.0548   0.6852
 Ivac, M/SEC               12082.0   1925.1
 Isp, M/SEC                   84.8   1059.8


 MOLE FRACTIONS

 *CO              0.47228  0.47226  0.46844
 *CO2             0.07764  0.07767  0.08280
 *H               0.00629  0.00628  0.00276
 *H2              0.21446  0.21449  0.22109
 H2O              0.22759  0.22758  0.22437
 *O               0.00003  0.00003  0.00000
 *OH              0.00169  0.00168  0.00053
 *O2              0.00001  0.00001  0.00000

  * THERMODYNAMIC PROPERTIES FITTED TO 20000.K

    PRODUCTS WHICH WERE CONSIDERED BUT WHOSE MOLE FRACTIONS
    WERE LESS THAN 5.000000E-06 FOR ALL ASSIGNED CONDITIONS

 *C              *CH             CH2             CH3             CH2OH          
 CH3O            CH4             CH3OH           CH3OOH          COOH           
 *C2             C2H             C2H2,acetylene  C2H2,vinylidene CH2CO,ketene   
 O(CH)2O         HO(CO)2OH       C2H3,vinyl      CH3CO,acetyl    C2H4           
 C2H4O,ethylen-o CH3CHO,ethanal  CH3COOH         OHCH2COOH       C2H5           
 C2H6            C2H5OH          CH3OCH3         CH3O2CH3        C2O            
 *C3             C3H3,1-propynl  C3H3,2-propynl  C3H4,allene     C3H4,propyne   
 C3H4,cyclo-     C3H5,allyl      C3H6,propylene  C3H6,cyclo-     C3H6O,propylox 
 C3H6O,acetone   C3H6O,propanal  C3H7,n-propyl   C3H7,i-propyl   C3H8           
 C3H8O,1propanol C3H8O,2propanol C3O2            *C4             C4H2,butadiyne 
 C4H4,1,3-cyclo- C4H6,butadiene  C4H6,1butyne    C4H6,2butyne    C4H6,cyclo-    
 C4H8,1-butene   C4H8,cis2-buten C4H8,tr2-butene C4H8,isobutene  C4H8,cyclo-    
 (CH3COOH)2      C4H9,n-butyl    C4H9,i-butyl    C4H9,s-butyl    C4H9,t-butyl   
 C4H10,n-butane  C4H10,isobutane *C5             C5H6,1,3cyclo-  C5H8,cyclo-    
 C5H10,1-pentene C5H10,cyclo-    C5H11,pentyl    C5H11,t-pentyl  C5H12,n-pentane
 C5H12,i-pentane CH3C(CH3)2CH3   C6H2            C6H5,phenyl     C6H5O,phenoxy  
 C6H6            C6H5OH,phenol   C6H10,cyclo-    C6H12,1-hexene  C6H12,cyclo-   
 C6H13,n-hexyl   C6H14,n-hexane  C7H7,benzyl     C7H8            C7H8O,cresol-mx
 C7H14,1-heptene C7H15,n-heptyl  C7H16,n-heptane C7H16,2-methylh C8H8,styrene   
 C8H10,ethylbenz C8H16,1-octene  C8H17,n-octyl   C8H18,n-octane  C8H18,isooctane
 C9H19,n-nonyl   C10H8,naphthale C10H21,n-decyl  C12H9,o-bipheny C12H10,biphenyl
 HCO             HCCO            HO2             HCHO,formaldehy HCOOH          
 H2O2            (HCOOH)2        O3              C(gr)           H2O(cr)        
 H2O(L)         

 NOTE. WEIGHT FRACTION OF FUEL IN TOTAL FUELS AND OF OXIDANT IN TOTAL OXIDANTS






 WARNING!!  ASSIGNED pip =   0.00000 IS NOT PERMITTED
 TO BE LESS THAN  Pinj/Pc =  1.00706. POINT OMITTED (ROCKET)





              THEORETICAL ROCKET PERFORMANCE ASSUMING EQUILIBRIUM

            COMPOSITION DURING EXPANSION FROM FINITE AREA COMBUSTOR

 Pin =   112.4 PSIA
 Ac/At =  7.7836      Pinj/Pinf =  1.003514
 CASE =                

             REACTANT                    WT FRACTION      ENERGY      TEMP
                                          (SEE NOTE)     KJ/KG-MOL      K  
 OXIDANT     CH4                          0.0000000    -58427.041    654.900
 OXIDANT     CO2                          0.0227000   -377967.709    654.900
 OXIDANT     CO                           0.0000000    -99912.083    654.900
 OXIDANT     H                            0.0000000    225414.331    654.900
 OXIDANT     H2                           0.0000000     10421.855    654.900
 OXIDANT     H2O                          0.0181000   -229313.019    654.900
 OXIDANT     O                            0.0000000    256795.218    654.900
 OXIDANT     O2                           0.9592000     11020.974    654.900
 OXIDANT     OH                           0.0000000     47830.931    654.900
 FUEL        PMMA                         1.0000000   -442140.000    293.150

 O/F=    0.94539  %FUEL= 51.403568  R,EQ.RATIO= 1.804056  PHI,EQ.RATIO= 2.114764

                 INJECTOR  COMB END  THROAT
 Pinj/P            1.0000   1.0071   1.7939
 P, BAR            7.7500   7.6956   4.3202
 T, K             2596.07  2594.46  2345.41
 RHO, KG/CU M    7.6168-1 7.5682-1 4.7109-1
 H, KJ/KG        -2316.29 -2319.88 -2877.91
 U, KJ/KG        -3333.77 -3336.72 -3794.97
 G, KJ/KG        -33241.4 -33229.4 -30820.4
 S, KJ/(KG)(K)    11.9123  11.9137  11.9137

 M, (1/n)          21.214   21.214   21.265
 (dLV/dLP)t      -1.00203 -1.00203 -1.00083
 (dLV/dLT)p        1.0454   1.0452   1.0201
 Cp, KJ/(KG)(K)    2.4340   2.4329   2.2066
 GAMMAs            1.2106   1.2106   1.2248
 SON VEL,M/SEC     1109.8   1109.5   1059.8
 MACH NUMBER        0.000    0.076    1.000

 PERFORMANCE PARAMETERS

 Ae/At                      7.7836   1.0000
 CSTAR, M/SEC               1546.8   1546.8
 CF                         0.0548   0.6852
 Ivac, M/SEC               12082.0   1925.1
 Isp, M/SEC                   84.8   1059.8


 MOLE FRACTIONS

 *CO              0.47228  0.47226  0.46844
 *CO2             0.07764  0.07767  0.08280
 *H               0.00629  0.00628  0.00276
 *H2              0.21446  0.21449  0.22109
 H2O              0.22759  0.22758  0.22437
 *O               0.00003  0.00003  0.00000
 *OH              0.00169  0.00168  0.00053
 *O2              0.00001  0.00001  0.00000

  * THERMODYNAMIC PROPERTIES FITTED TO 20000.K

    PRODUCTS WHICH WERE CONSIDERED BUT WHOSE MOLE FRACTIONS
    WERE LESS THAN 5.000000E-06 FOR ALL ASSIGNED CONDITIONS

 *C              *CH             CH2             CH3             CH2OH          
 CH3O            CH4             CH3OH           CH3OOH          COOH           
 *C2             C2H             C2H2,acetylene  C2H2,vinylidene CH2CO,ketene   
 O(CH)2O         HO(CO)2OH       C2H3,vinyl      CH3CO,acetyl    C2H4           
 C2H4O,ethylen-o CH3CHO,ethanal  CH3COOH         OHCH2COOH       C2H5           
 C2H6            C2H5OH          CH3OCH3         CH3O2CH3        C2O            
 *C3             C3H3,1-propynl  C3H3,2-propynl  C3H4,allene     C3H4,propyne   
 C3H4,cyclo-     C3H5,allyl      C3H6,propylene  C3H6,cyclo-     C3H6O,propylox 
 C3H6O,acetone   C3H6O,propanal  C3H7,n-propyl   C3H7,i-propyl   C3H8           
 C3H8O,1propanol C3H8O,2propanol C3O2            *C4             C4H2,butadiyne 
 C4H4,1,3-cyclo- C4H6,butadiene  C4H6,1butyne    C4H6,2butyne    C4H6,cyclo-    
 C4H8,1-butene   C4H8,cis2-buten C4H8,tr2-butene C4H8,isobutene  C4H8,cyclo-    
 (CH3COOH)2      C4H9,n-butyl    C4H9,i-butyl    C4H9,s-butyl    C4H9,t-butyl   
 C4H10,n-butane  C4H10,isobutane *C5             C5H6,1,3cyclo-  C5H8,cyclo-    
 C5H10,1-pentene C5H10,cyclo-    C5H11,pentyl    C5H11,t-pentyl  C5H12,n-pentane
 C5H12,i-pentane CH3C(CH3)2CH3   C6H2            C6H5,phenyl     C6H5O,phenoxy  
 C6H6            C6H5OH,phenol   C6H10,cyclo-    C6H12,1-hexene  C6H12,cyclo-   
 C6H13,n-hexyl   C6H14,n-hexane  C7H7,benzyl     C7H8            C7H8O,cresol-mx
 C7H14,1-heptene C7H15,n-heptyl  C7H16,n-heptane C7H16,2-methylh C8H8,styrene   
 C8H10,ethylbenz C8H16,1-octene  C8H17,n-octyl   C8H18,n-octane  C8H18,isooctane
 C9H19,n-nonyl   C10H8,naphthale C10H21,n-decyl  C12H9,o-bipheny C12H10,biphenyl
 HCO             HCCO            HO2             HCHO,formaldehy HCOOH          
 H2O2            (HCOOH)2        O3              C(gr)           H2O(cr)        
 H2O(L)         

 NOTE. WEIGHT FRACTION OF FUEL IN TOTAL FUELS AND OF OXIDANT IN TOTAL OXIDANTS






 WARNING!!  ASSIGNED pip =   0.00000 IS NOT PERMITTED
 TO BE LESS THAN  Pinj/Pc =  1.00706. POINT OMITTED (ROCKET)





              THEORETICAL ROCKET PERFORMANCE ASSUMING EQUILIBRIUM

            COMPOSITION DURING EXPANSION FROM FINITE AREA COMBUSTOR

 Pin =   112.4 PSIA
 Ac/At =  7.7836      Pinj/Pinf =  1.003514
 CASE =                

             REACTANT                    WT FRACTION      ENERGY      TEMP
                                          (SEE NOTE)     KJ/KG-MOL      K  
 OXIDANT     CH4                          0.0000000    -58427.041    654.900
 OXIDANT     CO2                          0.0227000   -377967.709    654.900
 OXIDANT     CO                           0.0000000    -99912.083    654.900
 OXIDANT     H                            0.0000000    225414.331    654.900
 OXIDANT     H2                           0.0000000     10421.855    654.900
 OXIDANT     H2O                          0.0181000   -229313.019    654.900
 OXIDANT     O                            0.0000000    256795.218    654.900
 OXIDANT     O2                           0.9592000     11020.974    654.900
 OXIDANT     OH                           0.0000000     47830.931    654.900
 FUEL        PMMA                         1.0000000   -442140.000    293.150

 O/F=    0.94539  %FUEL= 51.403568  R,EQ.RATIO= 1.804056  PHI,EQ.RATIO= 2.114764

                 INJECTOR  COMB END  THROAT
 Pinj/P            1.0000   1.0071   1.7939
 P, BAR            7.7500   7.6956   4.3202
 T, K             2596.07  2594.46  2345.41
 RHO, KG/CU M    7.6168-1 7.5682-1 4.7109-1
 H, KJ/KG        -2316.29 -2319.88 -2877.91
 U, KJ/KG        -3333.77 -3336.72 -3794.97
 G, KJ/KG        -33241.4 -33229.4 -30820.4
 S, KJ/(KG)(K)    11.9123  11.9137  11.9137

 M, (1/n)          21.214   21.214   21.265
 (dLV/dLP)t      -1.00203 -1.00203 -1.00083
 (dLV/dLT)p        1.0454   1.0452   1.0201
 Cp, KJ/(KG)(K)    2.4340   2.4329   2.2066
 GAMMAs            1.2106   1.2106   1.2248
 SON VEL,M/SEC     1109.8   1109.5   1059.8
 MACH NUMBER        0.000    0.076    1.000

 PERFORMANCE PARAMETERS

 Ae/At                      7.7836   1.0000
 CSTAR, M/SEC               1546.8   1546.8
 CF                         0.0548   0.6852
 Ivac, M/SEC               12082.0   1925.1
 Isp, M/SEC                   84.8   1059.8


 MOLE FRACTIONS

 *CO              0.47228  0.47226  0.46844
 *CO2             0.07764  0.07767  0.08280
 *H               0.00629  0.00628  0.00276
 *H2              0.21446  0.21449  0.22109
 H2O              0.22759  0.22758  0.22437
 *O               0.00003  0.00003  0.00000
 *OH              0.00169  0.00168  0.00053
 *O2              0.00001  0.00001  0.00000

  * THERMODYNAMIC PROPERTIES FITTED TO 20000.K

    PRODUCTS WHICH WERE CONSIDERED BUT WHOSE MOLE FRACTIONS
    WERE LESS THAN 5.000000E-06 FOR ALL ASSIGNED CONDITIONS

 *C              *CH             CH2             CH3             CH2OH          
 CH3O            CH4             CH3OH           CH3OOH          COOH           
 *C2             C2H             C2H2,acetylene  C2H2,vinylidene CH2CO,ketene   
 O(CH)2O         HO(CO)2OH       C2H3,vinyl      CH3CO,acetyl    C2H4           
 C2H4O,ethylen-o CH3CHO,ethanal  CH3COOH         OHCH2COOH       C2H5           
 C2H6            C2H5OH          CH3OCH3         CH3O2CH3        C2O            
 *C3             C3H3,1-propynl  C3H3,2-propynl  C3H4,allene     C3H4,propyne   
 C3H4,cyclo-     C3H5,allyl      C3H6,propylene  C3H6,cyclo-     C3H6O,propylox 
 C3H6O,acetone   C3H6O,propanal  C3H7,n-propyl   C3H7,i-propyl   C3H8           
 C3H8O,1propanol C3H8O,2propanol C3O2            *C4             C4H2,butadiyne 
 C4H4,1,3-cyclo- C4H6,butadiene  C4H6,1butyne    C4H6,2butyne    C4H6,cyclo-    
 C4H8,1-butene   C4H8,cis2-buten C4H8,tr2-butene C4H8,isobutene  C4H8,cyclo-    
 (CH3COOH)2      C4H9,n-butyl    C4H9,i-butyl    C4H9,s-butyl    C4H9,t-butyl   
 C4H10,n-butane  C4H10,isobutane *C5             C5H6,1,3cyclo-  C5H8,cyclo-    
 C5H10,1-pentene C5H10,cyclo-    C5H11,pentyl    C5H11,t-pentyl  C5H12,n-pentane
 C5H12,i-pentane CH3C(CH3)2CH3   C6H2            C6H5,phenyl     C6H5O,phenoxy  
 C6H6            C6H5OH,phenol   C6H10,cyclo-    C6H12,1-hexene  C6H12,cyclo-   
 C6H13,n-hexyl   C6H14,n-hexane  C7H7,benzyl     C7H8            C7H8O,cresol-mx
 C7H14,1-heptene C7H15,n-heptyl  C7H16,n-heptane C7H16,2-methylh C8H8,styrene   
 C8H10,ethylbenz C8H16,1-octene  C8H17,n-octyl   C8H18,n-octane  C8H18,isooctane
 C9H19,n-nonyl   C10H8,naphthale C10H21,n-decyl  C12H9,o-bipheny C12H10,biphenyl
 HCO             HCCO            HO2             HCHO,formaldehy HCOOH          
 H2O2            (HCOOH)2        O3              C(gr)           H2O(cr)        
 H2O(L)         

 NOTE. WEIGHT FRACTION OF FUEL IN TOTAL FUELS AND OF OXIDANT IN TOTAL OXIDANTS






 WARNING!!  ASSIGNED pip =   0.00000 IS NOT PERMITTED
 TO BE LESS THAN  Pinj/Pc =  1.00706. POINT OMITTED (ROCKET)





              THEORETICAL ROCKET PERFORMANCE ASSUMING EQUILIBRIUM

            COMPOSITION DURING EXPANSION FROM FINITE AREA COMBUSTOR

 Pin =   112.4 PSIA
 Ac/At =  7.7836      Pinj/Pinf =  1.003514
 CASE =                

             REACTANT                    WT FRACTION      ENERGY      TEMP
                                          (SEE NOTE)     KJ/KG-MOL      K  
 OXIDANT     CH4                          0.0000000    -58427.041    654.900
 OXIDANT     CO2                          0.0227000   -377967.709    654.900
 OXIDANT     CO                           0.0000000    -99912.083    654.900
 OXIDANT     H                            0.0000000    225414.331    654.900
 OXIDANT     H2                           0.0000000     10421.855    654.900
 OXIDANT     H2O                          0.0181000   -229313.019    654.900
 OXIDANT     O                            0.0000000    256795.218    654.900
 OXIDANT     O2                           0.9592000     11020.974    654.900
 OXIDANT     OH                           0.0000000     47830.931    654.900
 FUEL        PMMA                         1.0000000   -442140.000    293.150

 O/F=    0.94539  %FUEL= 51.403568  R,EQ.RATIO= 1.804056  PHI,EQ.RATIO= 2.114764

                 INJECTOR  COMB END  THROAT
 Pinj/P            1.0000   1.0071   1.7939
 P, BAR            7.7500   7.6956   4.3202
 T, K             2596.07  2594.46  2345.41
 RHO, KG/CU M    7.6168-1 7.5682-1 4.7109-1
 H, KJ/KG        -2316.29 -2319.88 -2877.91
 U, KJ/KG        -3333.77 -3336.72 -3794.97
 G, KJ/KG        -33241.4 -33229.4 -30820.4
 S, KJ/(KG)(K)    11.9123  11.9137  11.9137

 M, (1/n)          21.214   21.214   21.265
 (dLV/dLP)t      -1.00203 -1.00203 -1.00083
 (dLV/dLT)p        1.0454   1.0452   1.0201
 Cp, KJ/(KG)(K)    2.4340   2.4329   2.2066
 GAMMAs            1.2106   1.2106   1.2248
 SON VEL,M/SEC     1109.8   1109.5   1059.8
 MACH NUMBER        0.000    0.076    1.000

 PERFORMANCE PARAMETERS

 Ae/At                      7.7836   1.0000
 CSTAR, M/SEC               1546.8   1546.8
 CF                         0.0548   0.6852
 Ivac, M/SEC               12082.0   1925.1
 Isp, M/SEC                   84.8   1059.8


 MOLE FRACTIONS

 *CO              0.47228  0.47226  0.46844
 *CO2             0.07764  0.07767  0.08280
 *H               0.00629  0.00628  0.00276
 *H2              0.21446  0.21449  0.22109
 H2O              0.22759  0.22758  0.22437
 *O               0.00003  0.00003  0.00000
 *OH              0.00169  0.00168  0.00053
 *O2              0.00001  0.00001  0.00000

  * THERMODYNAMIC PROPERTIES FITTED TO 20000.K

    PRODUCTS WHICH WERE CONSIDERED BUT WHOSE MOLE FRACTIONS
    WERE LESS THAN 5.000000E-06 FOR ALL ASSIGNED CONDITIONS

 *C              *CH             CH2             CH3             CH2OH          
 CH3O            CH4             CH3OH           CH3OOH          COOH           
 *C2             C2H             C2H2,acetylene  C2H2,vinylidene CH2CO,ketene   
 O(CH)2O         HO(CO)2OH       C2H3,vinyl      CH3CO,acetyl    C2H4           
 C2H4O,ethylen-o CH3CHO,ethanal  CH3COOH         OHCH2COOH       C2H5           
 C2H6            C2H5OH          CH3OCH3         CH3O2CH3        C2O            
 *C3             C3H3,1-propynl  C3H3,2-propynl  C3H4,allene     C3H4,propyne   
 C3H4,cyclo-     C3H5,allyl      C3H6,propylene  C3H6,cyclo-     C3H6O,propylox 
 C3H6O,acetone   C3H6O,propanal  C3H7,n-propyl   C3H7,i-propyl   C3H8           
 C3H8O,1propanol C3H8O,2propanol C3O2            *C4             C4H2,butadiyne 
 C4H4,1,3-cyclo- C4H6,butadiene  C4H6,1butyne    C4H6,2butyne    C4H6,cyclo-    
 C4H8,1-butene   C4H8,cis2-buten C4H8,tr2-butene C4H8,isobutene  C4H8,cyclo-    
 (CH3COOH)2      C4H9,n-butyl    C4H9,i-butyl    C4H9,s-butyl    C4H9,t-butyl   
 C4H10,n-butane  C4H10,isobutane *C5             C5H6,1,3cyclo-  C5H8,cyclo-    
 C5H10,1-pentene C5H10,cyclo-    C5H11,pentyl    C5H11,t-pentyl  C5H12,n-pentane
 C5H12,i-pentane CH3C(CH3)2CH3   C6H2            C6H5,phenyl     C6H5O,phenoxy  
 C6H6            C6H5OH,phenol   C6H10,cyclo-    C6H12,1-hexene  C6H12,cyclo-   
 C6H13,n-hexyl   C6H14,n-hexane  C7H7,benzyl     C7H8            C7H8O,cresol-mx
 C7H14,1-heptene C7H15,n-heptyl  C7H16,n-heptane C7H16,2-methylh C8H8,styrene   
 C8H10,ethylbenz C8H16,1-octene  C8H17,n-octyl   C8H18,n-octane  C8H18,isooctane
 C9H19,n-nonyl   C10H8,naphthale C10H21,n-decyl  C12H9,o-bipheny C12H10,biphenyl
 HCO             HCCO            HO2             HCHO,formaldehy HCOOH          
 H2O2            (HCOOH)2        O3              C(gr)           H2O(cr)        
 H2O(L)         

 NOTE. WEIGHT FRACTION OF FUEL IN TOTAL FUELS AND OF OXIDANT IN TOTAL OXIDANTS






 WARNING!!  ASSIGNED pip =   0.00000 IS NOT PERMITTED
 TO BE LESS THAN  Pinj/Pc =  1.00706. POINT OMITTED (ROCKET)





              THEORETICAL ROCKET PERFORMANCE ASSUMING EQUILIBRIUM

            COMPOSITION DURING EXPANSION FROM FINITE AREA COMBUSTOR

 Pin =   112.4 PSIA
 Ac/At =  7.7836      Pinj/Pinf =  1.003514
 CASE =                

             REACTANT                    WT FRACTION      ENERGY      TEMP
                                          (SEE NOTE)     KJ/KG-MOL      K  
 OXIDANT     CH4                          0.0000000    -58427.041    654.900
 OXIDANT     CO2                          0.0227000   -377967.709    654.900
 OXIDANT     CO                           0.0000000    -99912.083    654.900
 OXIDANT     H                            0.0000000    225414.331    654.900
 OXIDANT     H2                           0.0000000     10421.855    654.900
 OXIDANT     H2O                          0.0181000   -229313.019    654.900
 OXIDANT     O                            0.0000000    256795.218    654.900
 OXIDANT     O2                           0.9592000     11020.974    654.900
 OXIDANT     OH                           0.0000000     47830.931    654.900
 FUEL        PMMA                         1.0000000   -442140.000    293.150

 O/F=    0.94539  %FUEL= 51.403568  R,EQ.RATIO= 1.804056  PHI,EQ.RATIO= 2.114764

                 INJECTOR  COMB END  THROAT
 Pinj/P            1.0000   1.0071   1.7939
 P, BAR            7.7500   7.6956   4.3202
 T, K             2596.07  2594.46  2345.41
 RHO, KG/CU M    7.6168-1 7.5682-1 4.7109-1
 H, KJ/KG        -2316.29 -2319.88 -2877.91
 U, KJ/KG        -3333.77 -3336.72 -3794.97
 G, KJ/KG        -33241.4 -33229.4 -30820.4
 S, KJ/(KG)(K)    11.9123  11.9137  11.9137

 M, (1/n)          21.214   21.214   21.265
 (dLV/dLP)t      -1.00203 -1.00203 -1.00083
 (dLV/dLT)p        1.0454   1.0452   1.0201
 Cp, KJ/(KG)(K)    2.4340   2.4329   2.2066
 GAMMAs            1.2106   1.2106   1.2248
 SON VEL,M/SEC     1109.8   1109.5   1059.8
 MACH NUMBER        0.000    0.076    1.000

 PERFORMANCE PARAMETERS

 Ae/At                      7.7836   1.0000
 CSTAR, M/SEC               1546.8   1546.8
 CF                         0.0548   0.6852
 Ivac, M/SEC               12082.0   1925.1
 Isp, M/SEC                   84.8   1059.8


 MOLE FRACTIONS

 *CO              0.47228  0.47226  0.46844
 *CO2             0.07764  0.07767  0.08280
 *H               0.00629  0.00628  0.00276
 *H2              0.21446  0.21449  0.22109
 H2O              0.22759  0.22758  0.22437
 *O               0.00003  0.00003  0.00000
 *OH              0.00169  0.00168  0.00053
 *O2              0.00001  0.00001  0.00000

  * THERMODYNAMIC PROPERTIES FITTED TO 20000.K

    PRODUCTS WHICH WERE CONSIDERED BUT WHOSE MOLE FRACTIONS
    WERE LESS THAN 5.000000E-06 FOR ALL ASSIGNED CONDITIONS

 *C              *CH             CH2             CH3             CH2OH          
 CH3O            CH4             CH3OH           CH3OOH          COOH           
 *C2             C2H             C2H2,acetylene  C2H2,vinylidene CH2CO,ketene   
 O(CH)2O         HO(CO)2OH       C2H3,vinyl      CH3CO,acetyl    C2H4           
 C2H4O,ethylen-o CH3CHO,ethanal  CH3COOH         OHCH2COOH       C2H5           
 C2H6            C2H5OH          CH3OCH3         CH3O2CH3        C2O            
 *C3             C3H3,1-propynl  C3H3,2-propynl  C3H4,allene     C3H4,propyne   
 C3H4,cyclo-     C3H5,allyl      C3H6,propylene  C3H6,cyclo-     C3H6O,propylox 
 C3H6O,acetone   C3H6O,propanal  C3H7,n-propyl   C3H7,i-propyl   C3H8           
 C3H8O,1propanol C3H8O,2propanol C3O2            *C4             C4H2,butadiyne 
 C4H4,1,3-cyclo- C4H6,butadiene  C4H6,1butyne    C4H6,2butyne    C4H6,cyclo-    
 C4H8,1-butene   C4H8,cis2-buten C4H8,tr2-butene C4H8,isobutene  C4H8,cyclo-    
 (CH3COOH)2      C4H9,n-butyl    C4H9,i-butyl    C4H9,s-butyl    C4H9,t-butyl   
 C4H10,n-butane  C4H10,isobutane *C5             C5H6,1,3cyclo-  C5H8,cyclo-    
 C5H10,1-pentene C5H10,cyclo-    C5H11,pentyl    C5H11,t-pentyl  C5H12,n-pentane
 C5H12,i-pentane CH3C(CH3)2CH3   C6H2            C6H5,phenyl     C6H5O,phenoxy  
 C6H6            C6H5OH,phenol   C6H10,cyclo-    C6H12,1-hexene  C6H12,cyclo-   
 C6H13,n-hexyl   C6H14,n-hexane  C7H7,benzyl     C7H8            C7H8O,cresol-mx
 C7H14,1-heptene C7H15,n-heptyl  C7H16,n-heptane C7H16,2-methylh C8H8,styrene   
 C8H10,ethylbenz C8H16,1-octene  C8H17,n-octyl   C8H18,n-octane  C8H18,isooctane
 C9H19,n-nonyl   C10H8,naphthale C10H21,n-decyl  C12H9,o-bipheny C12H10,biphenyl
 HCO             HCCO            HO2             HCHO,formaldehy HCOOH          
 H2O2            (HCOOH)2        O3              C(gr)           H2O(cr)        
 H2O(L)         

 NOTE. WEIGHT FRACTION OF FUEL IN TOTAL FUELS AND OF OXIDANT IN TOTAL OXIDANTS






 WARNING!!  ASSIGNED pip =   0.00000 IS NOT PERMITTED
 TO BE LESS THAN  Pinj/Pc =  1.00706. POINT OMITTED (ROCKET)





              THEORETICAL ROCKET PERFORMANCE ASSUMING EQUILIBRIUM

            COMPOSITION DURING EXPANSION FROM FINITE AREA COMBUSTOR

 Pin =   112.4 PSIA
 Ac/At =  7.7836      Pinj/Pinf =  1.003514
 CASE =                

             REACTANT                    WT FRACTION      ENERGY      TEMP
                                          (SEE NOTE)     KJ/KG-MOL      K  
 OXIDANT     CH4                          0.0000000    -58427.041    654.900
 OXIDANT     CO2                          0.0227000   -377967.709    654.900
 OXIDANT     CO                           0.0000000    -99912.083    654.900
 OXIDANT     H                            0.0000000    225414.331    654.900
 OXIDANT     H2                           0.0000000     10421.855    654.900
 OXIDANT     H2O                          0.0181000   -229313.019    654.900
 OXIDANT     O                            0.0000000    256795.218    654.900
 OXIDANT     O2                           0.9592000     11020.974    654.900
 OXIDANT     OH                           0.0000000     47830.931    654.900
 FUEL        PMMA                         1.0000000   -442140.000    293.150

 O/F=    0.94539  %FUEL= 51.403568  R,EQ.RATIO= 1.804056  PHI,EQ.RATIO= 2.114764

                 INJECTOR  COMB END  THROAT
 Pinj/P            1.0000   1.0071   1.7939
 P, BAR            7.7500   7.6956   4.3202
 T, K             2596.07  2594.46  2345.41
 RHO, KG/CU M    7.6168-1 7.5682-1 4.7109-1
 H, KJ/KG        -2316.29 -2319.88 -2877.91
 U, KJ/KG        -3333.77 -3336.72 -3794.97
 G, KJ/KG        -33241.4 -33229.4 -30820.4
 S, KJ/(KG)(K)    11.9123  11.9137  11.9137

 M, (1/n)          21.214   21.214   21.265
 (dLV/dLP)t      -1.00203 -1.00203 -1.00083
 (dLV/dLT)p        1.0454   1.0452   1.0201
 Cp, KJ/(KG)(K)    2.4340   2.4329   2.2066
 GAMMAs            1.2106   1.2106   1.2248
 SON VEL,M/SEC     1109.8   1109.5   1059.8
 MACH NUMBER        0.000    0.076    1.000

 PERFORMANCE PARAMETERS

 Ae/At                      7.7836   1.0000
 CSTAR, M/SEC               1546.8   1546.8
 CF                         0.0548   0.6852
 Ivac, M/SEC               12082.0   1925.1
 Isp, M/SEC                   84.8   1059.8


 MOLE FRACTIONS

 *CO              0.47228  0.47226  0.46844
 *CO2             0.07764  0.07767  0.08280
 *H               0.00629  0.00628  0.00276
 *H2              0.21446  0.21449  0.22109
 H2O              0.22759  0.22758  0.22437
 *O               0.00003  0.00003  0.00000
 *OH              0.00169  0.00168  0.00053
 *O2              0.00001  0.00001  0.00000

  * THERMODYNAMIC PROPERTIES FITTED TO 20000.K

    PRODUCTS WHICH WERE CONSIDERED BUT WHOSE MOLE FRACTIONS
    WERE LESS THAN 5.000000E-06 FOR ALL ASSIGNED CONDITIONS

 *C              *CH             CH2             CH3             CH2OH          
 CH3O            CH4             CH3OH           CH3OOH          COOH           
 *C2             C2H             C2H2,acetylene  C2H2,vinylidene CH2CO,ketene   
 O(CH)2O         HO(CO)2OH       C2H3,vinyl      CH3CO,acetyl    C2H4           
 C2H4O,ethylen-o CH3CHO,ethanal  CH3COOH         OHCH2COOH       C2H5           
 C2H6            C2H5OH          CH3OCH3         CH3O2CH3        C2O            
 *C3             C3H3,1-propynl  C3H3,2-propynl  C3H4,allene     C3H4,propyne   
 C3H4,cyclo-     C3H5,allyl      C3H6,propylene  C3H6,cyclo-     C3H6O,propylox 
 C3H6O,acetone   C3H6O,propanal  C3H7,n-propyl   C3H7,i-propyl   C3H8           
 C3H8O,1propanol C3H8O,2propanol C3O2            *C4             C4H2,butadiyne 
 C4H4,1,3-cyclo- C4H6,butadiene  C4H6,1butyne    C4H6,2butyne    C4H6,cyclo-    
 C4H8,1-butene   C4H8,cis2-buten C4H8,tr2-butene C4H8,isobutene  C4H8,cyclo-    
 (CH3COOH)2      C4H9,n-butyl    C4H9,i-butyl    C4H9,s-butyl    C4H9,t-butyl   
 C4H10,n-butane  C4H10,isobutane *C5             C5H6,1,3cyclo-  C5H8,cyclo-    
 C5H10,1-pentene C5H10,cyclo-    C5H11,pentyl    C5H11,t-pentyl  C5H12,n-pentane
 C5H12,i-pentane CH3C(CH3)2CH3   C6H2            C6H5,phenyl     C6H5O,phenoxy  
 C6H6            C6H5OH,phenol   C6H10,cyclo-    C6H12,1-hexene  C6H12,cyclo-   
 C6H13,n-hexyl   C6H14,n-hexane  C7H7,benzyl     C7H8            C7H8O,cresol-mx
 C7H14,1-heptene C7H15,n-heptyl  C7H16,n-heptane C7H16,2-methylh C8H8,styrene   
 C8H10,ethylbenz C8H16,1-octene  C8H17,n-octyl   C8H18,n-octane  C8H18,isooctane
 C9H19,n-nonyl   C10H8,naphthale C10H21,n-decyl  C12H9,o-bipheny C12H10,biphenyl
 HCO             HCCO            HO2             HCHO,formaldehy HCOOH          
 H2O2            (HCOOH)2        O3              C(gr)           H2O(cr)        
 H2O(L)         

 NOTE. WEIGHT FRACTION OF FUEL IN TOTAL FUELS AND OF OXIDANT IN TOTAL OXIDANTS






 WARNING!!  ASSIGNED pip =   0.00000 IS NOT PERMITTED
 TO BE LESS THAN  Pinj/Pc =  1.00706. POINT OMITTED (ROCKET)





              THEORETICAL ROCKET PERFORMANCE ASSUMING EQUILIBRIUM

            COMPOSITION DURING EXPANSION FROM FINITE AREA COMBUSTOR

 Pin =   112.4 PSIA
 Ac/At =  7.7836      Pinj/Pinf =  1.003514
 CASE =                

             REACTANT                    WT FRACTION      ENERGY      TEMP
                                          (SEE NOTE)     KJ/KG-MOL      K  
 OXIDANT     CH4                          0.0000000    -58427.041    654.900
 OXIDANT     CO2                          0.0227000   -377967.709    654.900
 OXIDANT     CO                           0.0000000    -99912.083    654.900
 OXIDANT     H                            0.0000000    225414.331    654.900
 OXIDANT     H2                           0.0000000     10421.855    654.900
 OXIDANT     H2O                          0.0181000   -229313.019    654.900
 OXIDANT     O                            0.0000000    256795.218    654.900
 OXIDANT     O2                           0.9592000     11020.974    654.900
 OXIDANT     OH                           0.0000000     47830.931    654.900
 FUEL        PMMA                         1.0000000   -442140.000    293.150

 O/F=    0.94539  %FUEL= 51.403568  R,EQ.RATIO= 1.804056  PHI,EQ.RATIO= 2.114764

                 INJECTOR  COMB END  THROAT
 Pinj/P            1.0000   1.0071   1.7939
 P, BAR            7.7500   7.6956   4.3202
 T, K             2596.07  2594.46  2345.41
 RHO, KG/CU M    7.6168-1 7.5682-1 4.7109-1
 H, KJ/KG        -2316.29 -2319.88 -2877.91
 U, KJ/KG        -3333.77 -3336.72 -3794.97
 G, KJ/KG        -33241.4 -33229.4 -30820.4
 S, KJ/(KG)(K)    11.9123  11.9137  11.9137

 M, (1/n)          21.214   21.214   21.265
 (dLV/dLP)t      -1.00203 -1.00203 -1.00083
 (dLV/dLT)p        1.0454   1.0452   1.0201
 Cp, KJ/(KG)(K)    2.4340   2.4329   2.2066
 GAMMAs            1.2106   1.2106   1.2248
 SON VEL,M/SEC     1109.8   1109.5   1059.8
 MACH NUMBER        0.000    0.076    1.000

 PERFORMANCE PARAMETERS

 Ae/At                      7.7836   1.0000
 CSTAR, M/SEC               1546.8   1546.8
 CF                         0.0548   0.6852
 Ivac, M/SEC               12082.0   1925.1
 Isp, M/SEC                   84.8   1059.8


 MOLE FRACTIONS

 *CO              0.47228  0.47226  0.46844
 *CO2             0.07764  0.07767  0.08280
 *H               0.00629  0.00628  0.00276
 *H2              0.21446  0.21449  0.22109
 H2O              0.22759  0.22758  0.22437
 *O               0.00003  0.00003  0.00000
 *OH              0.00169  0.00168  0.00053
 *O2              0.00001  0.00001  0.00000

  * THERMODYNAMIC PROPERTIES FITTED TO 20000.K

    PRODUCTS WHICH WERE CONSIDERED BUT WHOSE MOLE FRACTIONS
    WERE LESS THAN 5.000000E-06 FOR ALL ASSIGNED CONDITIONS

 *C              *CH             CH2             CH3             CH2OH          
 CH3O            CH4             CH3OH           CH3OOH          COOH           
 *C2             C2H             C2H2,acetylene  C2H2,vinylidene CH2CO,ketene   
 O(CH)2O         HO(CO)2OH       C2H3,vinyl      CH3CO,acetyl    C2H4           
 C2H4O,ethylen-o CH3CHO,ethanal  CH3COOH         OHCH2COOH       C2H5           
 C2H6            C2H5OH          CH3OCH3         CH3O2CH3        C2O            
 *C3             C3H3,1-propynl  C3H3,2-propynl  C3H4,allene     C3H4,propyne   
 C3H4,cyclo-     C3H5,allyl      C3H6,propylene  C3H6,cyclo-     C3H6O,propylox 
 C3H6O,acetone   C3H6O,propanal  C3H7,n-propyl   C3H7,i-propyl   C3H8           
 C3H8O,1propanol C3H8O,2propanol C3O2            *C4             C4H2,butadiyne 
 C4H4,1,3-cyclo- C4H6,butadiene  C4H6,1butyne    C4H6,2butyne    C4H6,cyclo-    
 C4H8,1-butene   C4H8,cis2-buten C4H8,tr2-butene C4H8,isobutene  C4H8,cyclo-    
 (CH3COOH)2      C4H9,n-butyl    C4H9,i-butyl    C4H9,s-butyl    C4H9,t-butyl   
 C4H10,n-butane  C4H10,isobutane *C5             C5H6,1,3cyclo-  C5H8,cyclo-    
 C5H10,1-pentene C5H10,cyclo-    C5H11,pentyl    C5H11,t-pentyl  C5H12,n-pentane
 C5H12,i-pentane CH3C(CH3)2CH3   C6H2            C6H5,phenyl     C6H5O,phenoxy  
 C6H6            C6H5OH,phenol   C6H10,cyclo-    C6H12,1-hexene  C6H12,cyclo-   
 C6H13,n-hexyl   C6H14,n-hexane  C7H7,benzyl     C7H8            C7H8O,cresol-mx
 C7H14,1-heptene C7H15,n-heptyl  C7H16,n-heptane C7H16,2-methylh C8H8,styrene   
 C8H10,ethylbenz C8H16,1-octene  C8H17,n-octyl   C8H18,n-octane  C8H18,isooctane
 C9H19,n-nonyl   C10H8,naphthale C10H21,n-decyl  C12H9,o-bipheny C12H10,biphenyl
 HCO             HCCO            HO2             HCHO,formaldehy HCOOH          
 H2O2            (HCOOH)2        O3              C(gr)           H2O(cr)        
 H2O(L)         

 NOTE. WEIGHT FRACTION OF FUEL IN TOTAL FUELS AND OF OXIDANT IN TOTAL OXIDANTS






 WARNING!!  ASSIGNED pip =   0.00000 IS NOT PERMITTED
 TO BE LESS THAN  Pinj/Pc =  1.00706. POINT OMITTED (ROCKET)





              THEORETICAL ROCKET PERFORMANCE ASSUMING EQUILIBRIUM

            COMPOSITION DURING EXPANSION FROM FINITE AREA COMBUSTOR

 Pin =   112.4 PSIA
 Ac/At =  7.7836      Pinj/Pinf =  1.003514
 CASE =                

             REACTANT                    WT FRACTION      ENERGY      TEMP
                                          (SEE NOTE)     KJ/KG-MOL      K  
 OXIDANT     CH4                          0.0000000    -58427.041    654.900
 OXIDANT     CO2                          0.0227000   -377967.709    654.900
 OXIDANT     CO                           0.0000000    -99912.083    654.900
 OXIDANT     H                            0.0000000    225414.331    654.900
 OXIDANT     H2                           0.0000000     10421.855    654.900
 OXIDANT     H2O                          0.0181000   -229313.019    654.900
 OXIDANT     O                            0.0000000    256795.218    654.900
 OXIDANT     O2                           0.9592000     11020.974    654.900
 OXIDANT     OH                           0.0000000     47830.931    654.900
 FUEL        PMMA                         1.0000000   -442140.000    293.150

 O/F=    0.94539  %FUEL= 51.403568  R,EQ.RATIO= 1.804056  PHI,EQ.RATIO= 2.114764

                 INJECTOR  COMB END  THROAT
 Pinj/P            1.0000   1.0071   1.7939
 P, BAR            7.7500   7.6956   4.3202
 T, K             2596.07  2594.46  2345.41
 RHO, KG/CU M    7.6168-1 7.5682-1 4.7109-1
 H, KJ/KG        -2316.29 -2319.88 -2877.91
 U, KJ/KG        -3333.77 -3336.72 -3794.97
 G, KJ/KG        -33241.4 -33229.4 -30820.4
 S, KJ/(KG)(K)    11.9123  11.9137  11.9137

 M, (1/n)          21.214   21.214   21.265
 (dLV/dLP)t      -1.00203 -1.00203 -1.00083
 (dLV/dLT)p        1.0454   1.0452   1.0201
 Cp, KJ/(KG)(K)    2.4340   2.4329   2.2066
 GAMMAs            1.2106   1.2106   1.2248
 SON VEL,M/SEC     1109.8   1109.5   1059.8
 MACH NUMBER        0.000    0.076    1.000

 PERFORMANCE PARAMETERS

 Ae/At                      7.7836   1.0000
 CSTAR, M/SEC               1546.8   1546.8
 CF                         0.0548   0.6852
 Ivac, M/SEC               12082.0   1925.1
 Isp, M/SEC                   84.8   1059.8


 MOLE FRACTIONS

 *CO              0.47228  0.47226  0.46844
 *CO2             0.07764  0.07767  0.08280
 *H               0.00629  0.00628  0.00276
 *H2              0.21446  0.21449  0.22109
 H2O              0.22759  0.22758  0.22437
 *O               0.00003  0.00003  0.00000
 *OH              0.00169  0.00168  0.00053
 *O2              0.00001  0.00001  0.00000

  * THERMODYNAMIC PROPERTIES FITTED TO 20000.K

    PRODUCTS WHICH WERE CONSIDERED BUT WHOSE MOLE FRACTIONS
    WERE LESS THAN 5.000000E-06 FOR ALL ASSIGNED CONDITIONS

 *C              *CH             CH2             CH3             CH2OH          
 CH3O            CH4             CH3OH           CH3OOH          COOH           
 *C2             C2H             C2H2,acetylene  C2H2,vinylidene CH2CO,ketene   
 O(CH)2O         HO(CO)2OH       C2H3,vinyl      CH3CO,acetyl    C2H4           
 C2H4O,ethylen-o CH3CHO,ethanal  CH3COOH         OHCH2COOH       C2H5           
 C2H6            C2H5OH          CH3OCH3         CH3O2CH3        C2O            
 *C3             C3H3,1-propynl  C3H3,2-propynl  C3H4,allene     C3H4,propyne   
 C3H4,cyclo-     C3H5,allyl      C3H6,propylene  C3H6,cyclo-     C3H6O,propylox 
 C3H6O,acetone   C3H6O,propanal  C3H7,n-propyl   C3H7,i-propyl   C3H8           
 C3H8O,1propanol C3H8O,2propanol C3O2            *C4             C4H2,butadiyne 
 C4H4,1,3-cyclo- C4H6,butadiene  C4H6,1butyne    C4H6,2butyne    C4H6,cyclo-    
 C4H8,1-butene   C4H8,cis2-buten C4H8,tr2-butene C4H8,isobutene  C4H8,cyclo-    
 (CH3COOH)2      C4H9,n-butyl    C4H9,i-butyl    C4H9,s-butyl    C4H9,t-butyl   
 C4H10,n-butane  C4H10,isobutane *C5             C5H6,1,3cyclo-  C5H8,cyclo-    
 C5H10,1-pentene C5H10,cyclo-    C5H11,pentyl    C5H11,t-pentyl  C5H12,n-pentane
 C5H12,i-pentane CH3C(CH3)2CH3   C6H2            C6H5,phenyl     C6H5O,phenoxy  
 C6H6            C6H5OH,phenol   C6H10,cyclo-    C6H12,1-hexene  C6H12,cyclo-   
 C6H13,n-hexyl   C6H14,n-hexane  C7H7,benzyl     C7H8            C7H8O,cresol-mx
 C7H14,1-heptene C7H15,n-heptyl  C7H16,n-heptane C7H16,2-methylh C8H8,styrene   
 C8H10,ethylbenz C8H16,1-octene  C8H17,n-octyl   C8H18,n-octane  C8H18,isooctane
 C9H19,n-nonyl   C10H8,naphthale C10H21,n-decyl  C12H9,o-bipheny C12H10,biphenyl
 HCO             HCCO            HO2             HCHO,formaldehy HCOOH          
 H2O2            (HCOOH)2        O3              C(gr)           H2O(cr)        
 H2O(L)         

 NOTE. WEIGHT FRACTION OF FUEL IN TOTAL FUELS AND OF OXIDANT IN TOTAL OXIDANTS






 WARNING!!  ASSIGNED pip =   0.00000 IS NOT PERMITTED
 TO BE LESS THAN  Pinj/Pc =  1.00706. POINT OMITTED (ROCKET)





              THEORETICAL ROCKET PERFORMANCE ASSUMING EQUILIBRIUM

            COMPOSITION DURING EXPANSION FROM FINITE AREA COMBUSTOR

 Pin =   112.4 PSIA
 Ac/At =  7.7836      Pinj/Pinf =  1.003514
 CASE =                

             REACTANT                    WT FRACTION      ENERGY      TEMP
                                          (SEE NOTE)     KJ/KG-MOL      K  
 OXIDANT     CH4                          0.0000000    -58427.041    654.900
 OXIDANT     CO2                          0.0227000   -377967.709    654.900
 OXIDANT     CO                           0.0000000    -99912.083    654.900
 OXIDANT     H                            0.0000000    225414.331    654.900
 OXIDANT     H2                           0.0000000     10421.855    654.900
 OXIDANT     H2O                          0.0181000   -229313.019    654.900
 OXIDANT     O                            0.0000000    256795.218    654.900
 OXIDANT     O2                           0.9592000     11020.974    654.900
 OXIDANT     OH                           0.0000000     47830.931    654.900
 FUEL        PMMA                         1.0000000   -442140.000    293.150

 O/F=    0.94539  %FUEL= 51.403568  R,EQ.RATIO= 1.804056  PHI,EQ.RATIO= 2.114764

                 INJECTOR  COMB END  THROAT
 Pinj/P            1.0000   1.0071   1.7939
 P, BAR            7.7500   7.6956   4.3202
 T, K             2596.07  2594.46  2345.41
 RHO, KG/CU M    7.6168-1 7.5682-1 4.7109-1
 H, KJ/KG        -2316.29 -2319.88 -2877.91
 U, KJ/KG        -3333.77 -3336.72 -3794.97
 G, KJ/KG        -33241.4 -33229.4 -30820.4
 S, KJ/(KG)(K)    11.9123  11.9137  11.9137

 M, (1/n)          21.214   21.214   21.265
 (dLV/dLP)t      -1.00203 -1.00203 -1.00083
 (dLV/dLT)p        1.0454   1.0452   1.0201
 Cp, KJ/(KG)(K)    2.4340   2.4329   2.2066
 GAMMAs            1.2106   1.2106   1.2248
 SON VEL,M/SEC     1109.8   1109.5   1059.8
 MACH NUMBER        0.000    0.076    1.000

 PERFORMANCE PARAMETERS

 Ae/At                      7.7836   1.0000
 CSTAR, M/SEC               1546.8   1546.8
 CF                         0.0548   0.6852
 Ivac, M/SEC               12082.0   1925.1
 Isp, M/SEC                   84.8   1059.8


 MOLE FRACTIONS

 *CO              0.47228  0.47226  0.46844
 *CO2             0.07764  0.07767  0.08280
 *H               0.00629  0.00628  0.00276
 *H2              0.21446  0.21449  0.22109
 H2O              0.22759  0.22758  0.22437
 *O               0.00003  0.00003  0.00000
 *OH              0.00169  0.00168  0.00053
 *O2              0.00001  0.00001  0.00000

  * THERMODYNAMIC PROPERTIES FITTED TO 20000.K

    PRODUCTS WHICH WERE CONSIDERED BUT WHOSE MOLE FRACTIONS
    WERE LESS THAN 5.000000E-06 FOR ALL ASSIGNED CONDITIONS

 *C              *CH             CH2             CH3             CH2OH          
 CH3O            CH4             CH3OH           CH3OOH          COOH           
 *C2             C2H             C2H2,acetylene  C2H2,vinylidene CH2CO,ketene   
 O(CH)2O         HO(CO)2OH       C2H3,vinyl      CH3CO,acetyl    C2H4           
 C2H4O,ethylen-o CH3CHO,ethanal  CH3COOH         OHCH2COOH       C2H5           
 C2H6            C2H5OH          CH3OCH3         CH3O2CH3        C2O            
 *C3             C3H3,1-propynl  C3H3,2-propynl  C3H4,allene     C3H4,propyne   
 C3H4,cyclo-     C3H5,allyl      C3H6,propylene  C3H6,cyclo-     C3H6O,propylox 
 C3H6O,acetone   C3H6O,propanal  C3H7,n-propyl   C3H7,i-propyl   C3H8           
 C3H8O,1propanol C3H8O,2propanol C3O2            *C4             C4H2,butadiyne 
 C4H4,1,3-cyclo- C4H6,butadiene  C4H6,1butyne    C4H6,2butyne    C4H6,cyclo-    
 C4H8,1-butene   C4H8,cis2-buten C4H8,tr2-butene C4H8,isobutene  C4H8,cyclo-    
 (CH3COOH)2      C4H9,n-butyl    C4H9,i-butyl    C4H9,s-butyl    C4H9,t-butyl   
 C4H10,n-butane  C4H10,isobutane *C5             C5H6,1,3cyclo-  C5H8,cyclo-    
 C5H10,1-pentene C5H10,cyclo-    C5H11,pentyl    C5H11,t-pentyl  C5H12,n-pentane
 C5H12,i-pentane CH3C(CH3)2CH3   C6H2            C6H5,phenyl     C6H5O,phenoxy  
 C6H6            C6H5OH,phenol   C6H10,cyclo-    C6H12,1-hexene  C6H12,cyclo-   
 C6H13,n-hexyl   C6H14,n-hexane  C7H7,benzyl     C7H8            C7H8O,cresol-mx
 C7H14,1-heptene C7H15,n-heptyl  C7H16,n-heptane C7H16,2-methylh C8H8,styrene   
 C8H10,ethylbenz C8H16,1-octene  C8H17,n-octyl   C8H18,n-octane  C8H18,isooctane
 C9H19,n-nonyl   C10H8,naphthale C10H21,n-decyl  C12H9,o-bipheny C12H10,biphenyl
 HCO             HCCO            HO2             HCHO,formaldehy HCOOH          
 H2O2            (HCOOH)2        O3              C(gr)           H2O(cr)        
 H2O(L)         

 NOTE. WEIGHT FRACTION OF FUEL IN TOTAL FUELS AND OF OXIDANT IN TOTAL OXIDANTS





   4   11     736.496      -0.478     -11.359     -48.664
 ADD  C(gr)          
   4    3     753.099      -1.169     -11.380     -47.647





              THEORETICAL ROCKET PERFORMANCE ASSUMING EQUILIBRIUM

            COMPOSITION DURING EXPANSION FROM FINITE AREA COMBUSTOR

 Pin =   112.4 PSIA
 Ac/At =  7.7836      Pinj/Pinf =  1.003514
 CASE =                

             REACTANT                    WT FRACTION      ENERGY      TEMP
                                          (SEE NOTE)     KJ/KG-MOL      K  
 OXIDANT     CH4                          0.0000000    -58427.041    654.900
 OXIDANT     CO2                          0.0227000   -377967.709    654.900
 OXIDANT     CO                           0.0000000    -99912.083    654.900
 OXIDANT     H                            0.0000000    225414.331    654.900
 OXIDANT     H2                           0.0000000     10421.855    654.900
 OXIDANT     H2O                          0.0181000   -229313.019    654.900
 OXIDANT     O                            0.0000000    256795.218    654.900
 OXIDANT     O2                           0.9592000     11020.974    654.900
 OXIDANT     OH                           0.0000000     47830.931    654.900
 FUEL        PMMA                         1.0000000   -442140.000    293.150

 O/F=    0.94539  %FUEL= 51.403568  R,EQ.RATIO= 1.804056  PHI,EQ.RATIO= 2.114764

                 INJECTOR  COMB END  THROAT     EXIT
 Pinj/P            1.0000   1.0071   1.7939  1109.83
 P, BAR            7.7500   7.6956   4.3202  0.00698
 T, K             2596.07  2594.46  2345.41   753.10
 RHO, KG/CU M    7.6168-1 7.5682-1 4.7109-1 2.4225-3
 H, KJ/KG        -2316.29 -2319.88 -2877.91 -6265.20
 U, KJ/KG        -3333.77 -3336.72 -3794.97 -6553.46
 G, KJ/KG        -33241.4 -33229.4 -30820.4 -15237.4
 S, KJ/(KG)(K)    11.9123  11.9137  11.9137  11.9137

 M, (1/n)          21.214   21.214   21.265   21.722
 MW, MOL WT        21.214   21.214   21.265   21.434
 (dLV/dLP)t      -1.00203 -1.00203 -1.00083 -1.08257
 (dLV/dLT)p        1.0454   1.0452   1.0201   3.0407
 Cp, KJ/(KG)(K)    2.4340   2.4329   2.2066  21.6375
 GAMMAs            1.2106   1.2106   1.2248   1.0881
 SON VEL,M/SEC     1109.8   1109.5   1059.8    560.1
 MACH NUMBER        0.000    0.076    1.000    5.018

 PERFORMANCE PARAMETERS

 Ae/At                      7.7836   1.0000   73.339
 CSTAR, M/SEC               1546.8   1546.8   1546.8
 CF                         0.0548   0.6852   1.8169
 Ivac, M/SEC               12082.0   1925.1   2912.9
 Isp, M/SEC                   84.8   1059.8   2810.3


 MOLE FRACTIONS

 CH4              0.00000  0.00000  0.00000  0.00314
 *CO              0.47228  0.47226  0.46844  0.27449
 *CO2             0.07764  0.07767  0.08280  0.26471
 *H               0.00629  0.00628  0.00276  0.00000
 *H2              0.21446  0.21449  0.22109  0.38252
 H2O              0.22759  0.22758  0.22437  0.06186
 *O               0.00003  0.00003  0.00000  0.00000
 *OH              0.00169  0.00168  0.00053  0.00000
 *O2              0.00001  0.00001  0.00000  0.00000
 C(gr)            0.00000  0.00000  0.00000  0.01328

  * THERMODYNAMIC PROPERTIES FITTED TO 20000.K

    PRODUCTS WHICH WERE CONSIDERED BUT WHOSE MOLE FRACTIONS
    WERE LESS THAN 5.000000E-06 FOR ALL ASSIGNED CONDITIONS

 *C              *CH             CH2             CH3             CH2OH          
 CH3O            CH3OH           CH3OOH          COOH            *C2            
 C2H             C2H2,acetylene  C2H2,vinylidene CH2CO,ketene    O(CH)2O        
 HO(CO)2OH       C2H3,vinyl      CH3CO,acetyl    C2H4            C2H4O,ethylen-o
 CH3CHO,ethanal  CH3COOH         OHCH2COOH       C2H5            C2H6           
 C2H5OH          CH3OCH3         CH3O2CH3        C2O             *C3            
 C3H3,1-propynl  C3H3,2-propynl  C3H4,allene     C3H4,propyne    C3H4,cyclo-    
 C3H5,allyl      C3H6,propylene  C3H6,cyclo-     C3H6O,propylox  C3H6O,acetone  
 C3H6O,propanal  C3H7,n-propyl   C3H7,i-propyl   C3H8            C3H8O,1propanol
 C3H8O,2propanol C3O2            *C4             C4H2,butadiyne  C4H4,1,3-cyclo-
 C4H6,butadiene  C4H6,1butyne    C4H6,2butyne    C4H6,cyclo-     C4H8,1-butene  
 C4H8,cis2-buten C4H8,tr2-butene C4H8,isobutene  C4H8,cyclo-     (CH3COOH)2     
 C4H9,n-butyl    C4H9,i-butyl    C4H9,s-butyl    C4H9,t-butyl    C4H10,n-butane 
 C4H10,isobutane *C5             C5H6,1,3cyclo-  C5H8,cyclo-     C5H10,1-pentene
 C5H10,cyclo-    C5H11,pentyl    C5H11,t-pentyl  C5H12,n-pentane C5H12,i-pentane
 CH3C(CH3)2CH3   C6H2            C6H5,phenyl     C6H5O,phenoxy   C6H6           
 C6H5OH,phenol   C6H10,cyclo-    C6H12,1-hexene  C6H12,cyclo-    C6H13,n-hexyl  
 C6H14,n-hexane  C7H7,benzyl     C7H8            C7H8O,cresol-mx C7H14,1-heptene
 C7H15,n-heptyl  C7H16,n-heptane C7H16,2-methylh C8H8,styrene    C8H10,ethylbenz
 C8H16,1-octene  C8H17,n-octyl   C8H18,n-octane  C8H18,isooctane C9H19,n-nonyl  
 C10H8,naphthale C10H21,n-decyl  C12H9,o-bipheny C12H10,biphenyl HCO            
 HCCO            HO2             HCHO,formaldehy HCOOH           H2O2           
 (HCOOH)2        O3              H2O(cr)         H2O(L)         

 NOTE. WEIGHT FRACTION OF FUEL IN TOTAL FUELS AND OF OXIDANT IN TOTAL OXIDANTS



