
 *******************************************************************************

         NASA-GLENN CHEMICAL EQUILIBRIUM PROGRAM CEA2, MAY 21, 2004
                   BY  BONNIE MCBRIDE AND SANFORD GORDON
      REFS: NASA RP-1311, PART I, 1994 AND NASA RP-1311, PART II, 1996

 *******************************************************************************



 prob rocket fac p,bar=7.72,ac/at=7.825312374,
 o/f=0.939603913876, pi/pe=1, eq
 react
 	oxid=O2  wt=100	t,k=293.15
 	fuel=PMMA  wt=100 t,k=293.15
 	h,kj/mol=-442.14  C 5 H 8 O 2
 end

 OPTIONS: TP=F  HP=F  SP=F  TV=F  UV=F  SV=F  DETN=F  SHOCK=F  REFL=F  INCD=F
 RKT=T  FROZ=F  EQL=T  IONS=F  SIUNIT=T  DEBUGF=F  SHKDBG=F  DETDBG=F  TRNSPT=F

 TRACE= 0.00E+00  S/R= 0.000000E+00  H/R= 0.000000E+00  U/R= 0.000000E+00

 Pc,BAR =     7.720000

 Pc/P =     1.0000

 SUBSONIC AREA RATIOS =

 SUPERSONIC AREA RATIOS =

 NFZ=  1  Mdot/Ac= 0.000000E+00  Ac/At= 7.825312E+00

    REACTANT          WT.FRAC   (ENERGY/R),K   TEMP,K  DENSITY
        EXPLODED FORMULA
 O: O2               1.000000  -0.176597E+02   293.15  0.0000
          O  2.00000
 F: PMMA             1.000000  -0.531769E+05   293.15  0.0000
          C  5.00000  H  8.00000  O  2.00000

  SPECIES BEING CONSIDERED IN THIS SYSTEM
 (CONDENSED PHASE MAY HAVE NAME LISTED SEVERAL TIMES)
  LAST thermo.inp UPDATE:    9/09/04

  g 7/97  *C               tpis79  *CH              g 4/02  CH2            
  g 4/02  CH3              g11/00  CH2OH            g 7/00  CH3O           
  g 8/99  CH4              g 7/00  CH3OH            srd 01  CH3OOH         
  tpis79  *CO              g 9/99  *CO2             tpis91  COOH           
  tpis91  *C2              g 6/01  C2H              g 1/91  C2H2,acetylene 
  g 5/01  C2H2,vinylidene  g 4/02  CH2CO,ketene     g 3/02  O(CH)2O        
  srd 01  HO(CO)2OH        g 7/01  C2H3,vinyl       g 6/96  CH3CO,acetyl   
  g 1/00  C2H4             g 8/88  C2H4O,ethylen-o  g 8/88  CH3CHO,ethanal 
  g 6/00  CH3COOH          srd 01  OHCH2COOH        g 7/00  C2H5           
  g 7/00  C2H6             g 8/88  C2H5OH           g 7/00  CH3OCH3        
  srd 01  CH3O2CH3         g 8/00  C2O              tpis79  *C3            
  n 4/98  C3H3,1-propynl   n 4/98  C3H3,2-propynl   g 2/00  C3H4,allene    
  g 1/00  C3H4,propyne     g 5/90  C3H4,cyclo-      g 3/01  C3H5,allyl     
  g 2/00  C3H6,propylene   g 1/00  C3H6,cyclo-      g 6/01  C3H6O,propylox 
  g 6/97  C3H6O,acetone    g 1/02  C3H6O,propanal   g 7/01  C3H7,n-propyl  
  g 9/85  C3H7,i-propyl    g 2/00  C3H8             g 2/00  C3H8O,1propanol
  g 2/00  C3H8O,2propanol  g 7/88  C3O2             g tpis  *C4            
  g 7/01  C4H2,butadiyne   g 8/00  C4H4,1,3-cyclo-  n10/92  C4H6,butadiene 
  n10/93  C4H6,1butyne     n10/93  C4H6,2butyne     g 8/00  C4H6,cyclo-    
  n 4/88  C4H8,1-butene    n 4/88  C4H8,cis2-buten  n 4/88  C4H8,tr2-butene
  n 4/88  C4H8,isobutene   g 8/00  C4H8,cyclo-      g10/00  (CH3COOH)2     
  n10/84  C4H9,n-butyl     n10/84  C4H9,i-butyl     g 1/93  C4H9,s-butyl   
  g 1/93  C4H9,t-butyl     g12/00  C4H10,n-butane   g 8/00  C4H10,isobutane
  g 8/00  *C5              g 5/90  C5H6,1,3cyclo-   g 1/93  C5H8,cyclo-    
  n 4/87  C5H10,1-pentene  g 2/01  C5H10,cyclo-     n10/84  C5H11,pentyl   
  g 1/93  C5H11,t-pentyl   n10/85  C5H12,n-pentane  n10/85  C5H12,i-pentane
  n10/85  CH3C(CH3)2CH3    g 2/93  C6H2             g11/00  C6H5,phenyl    
  g 8/00  C6H5O,phenoxy    g 8/00  C6H6             g 8/00  C6H5OH,phenol  
  g 1/93  C6H10,cyclo-     n 4/87  C6H12,1-hexene   g 6/90  C6H12,cyclo-   
  n10/83  C6H13,n-hexyl    g 6/01  C6H14,n-hexane   g 7/01  C7H7,benzyl    
  g 1/93  C7H8             g12/00  C7H8O,cresol-mx  n 4/87  C7H14,1-heptene
  n10/83  C7H15,n-heptyl   n10/85  C7H16,n-heptane  n10/85  C7H16,2-methylh
  n 4/89  C8H8,styrene     n10/86  C8H10,ethylbenz  n 4/87  C8H16,1-octene 
  n10/83  C8H17,n-octyl    n 4/85  C8H18,n-octane   n 4/85  C8H18,isooctane
  n10/83  C9H19,n-nonyl    g 3/01  C10H8,naphthale  n10/83  C10H21,n-decyl 
  g 8/00  C12H9,o-bipheny  g 8/00  C12H10,biphenyl  g 6/97  *H             
  g 1/01  HCO              g 6/01  HCCO             g 4/02  HO2            
  tpis78  *H2              g 5/01  HCHO,formaldehy  g 6/01  HCOOH          
  g 8/89  H2O              g 6/99  H2O2             g 6/01  (HCOOH)2       
  g 5/97  *O               g 4/02  *OH              tpis89  *O2            
  g 8/01  O3               n 4/83  C(gr)            n 4/83  C(gr)          
  n 4/83  C(gr)            g11/99  H2O(cr)          g 8/01  H2O(L)         
  g 8/01  H2O(L)         

 O/F =   0.939604

                       EFFECTIVE FUEL     EFFECTIVE OXIDANT        MIXTURE
 ENTHALPY                  h(2)/R              h(1)/R               h0/R
 (KG-MOL)(K)/KG       -0.53115398E+03     -0.55188616E+00     -0.27411397E+03

 KG-FORM.WT./KG             bi(2)               bi(1)               b0i
  *O                   0.19976863E-01      0.62502344E-01      0.40577516E-01
  *C                   0.49942157E-01      0.00000000E+00      0.25748637E-01
  *H                   0.79907451E-01      0.00000000E+00      0.41197819E-01

 POINT ITN      T            O           C           H 
   1   22    2654.765     -19.186     -13.238      -9.983
   2    2    2653.996     -19.189     -13.268      -9.999
 Pinf/Pt = 1.773754
   3    4    2408.809     -20.209     -12.987     -10.105
 Pinf/Pt = 1.783755
   3    2    2406.431     -20.220     -12.984     -10.106
 Pinf/Pt = 1.783843
   3    1    2406.411     -20.220     -12.984     -10.106
   4    2    2651.909     -19.196     -13.266     -10.000
   4    2    2652.600     -19.194     -13.267      -9.999
   4    1    2652.501     -19.194     -13.267     -10.000
   4    1    2652.497     -19.194     -13.267     -10.000
   2    2    2654.684     -19.186     -13.241      -9.985
 Pinf/Pt = 1.773943
   3    4    2409.056     -20.207     -12.959     -10.090
 Pinf/Pt = 1.783890
   3    2    2406.688     -20.218     -12.956     -10.091
 Pinf/Pt = 1.783976
   3    1    2406.667     -20.219     -12.956     -10.091
   4    2    2652.592     -19.194     -13.239      -9.986
   4    2    2653.285     -19.191     -13.240      -9.985
   4    1    2653.185     -19.192     -13.240      -9.985
   4    1    2653.182     -19.192     -13.240      -9.985
 END OF CHAMBER ITERATIONS

 WARNING!!  ASSIGNED pip =   1.00000 IS NOT PERMITTED
 TO BE LESS THAN  Pinj/Pc =  1.00696. POINT OMITTED (ROCKET)





              THEORETICAL ROCKET PERFORMANCE ASSUMING EQUILIBRIUM

            COMPOSITION DURING EXPANSION FROM FINITE AREA COMBUSTOR

 Pin =   112.0 PSIA
 Ac/At =  7.8253      Pinj/Pinf =  1.003464
 CASE =                

             REACTANT                    WT FRACTION      ENERGY      TEMP
                                          (SEE NOTE)     KJ/KG-MOL      K  
 OXIDANT     O2                           1.0000000      -146.832    293.150
 FUEL        PMMA                         1.0000000   -442140.000    293.150

 O/F=    0.93960  %FUEL= 51.556918  R,EQ.RATIO= 1.776752  PHI,EQ.RATIO= 2.040974

                 INJECTOR  COMB END  THROAT
 Pinj/P            1.0000   1.0070   1.7902
 P, BAR            7.7200   7.6666   4.3125
 T, K             2654.77  2653.18  2406.67
 RHO, KG/CU M    7.5073-1 7.4600-1 4.6395-1
 H, KJ/KG        -2279.12 -2282.70 -2845.55
 U, KJ/KG        -3307.46 -3310.40 -3775.06
 G, KJ/KG        -33785.9 -33774.2 -31411.1
 S, KJ/(KG)(K)    11.8680  11.8693  11.8693

 M, (1/n)          21.465   21.465   21.528
 (dLV/dLP)t      -1.00261 -1.00260 -1.00112
 (dLV/dLT)p        1.0573   1.0572   1.0267
 Cp, KJ/(KG)(K)    2.5177   2.5165   2.2541
 GAMMAs            1.2039   1.2040   1.2188
 SON VEL,M/SEC     1112.7   1112.4   1064.4
 MACH NUMBER        0.000    0.076    1.000

 PERFORMANCE PARAMETERS

 Ae/At                      7.8253  1.00000
 CSTAR, M/SEC               1557.9   1557.9
 CF                         0.0543   0.6832
 Ivac, M/SEC               12233.6   1937.7
 Isp, M/SEC                   84.6   1064.4


 MOLE FRACTIONS

 *CO              0.47073  0.47071  0.46733
 *CO2             0.08196  0.08199  0.08698
 *H               0.00776  0.00774  0.00363
 *H2              0.20323  0.20327  0.20981
 H2O              0.23384  0.23383  0.23141
 *O               0.00005  0.00005  0.00001
 *OH              0.00239  0.00238  0.00082
 *O2              0.00002  0.00002  0.00000

  * THERMODYNAMIC PROPERTIES FITTED TO 20000.K

    PRODUCTS WHICH WERE CONSIDERED BUT WHOSE MOLE FRACTIONS
    WERE LESS THAN 5.000000E-06 FOR ALL ASSIGNED CONDITIONS

 *C              *CH             CH2             CH3             CH2OH          
 CH3O            CH4             CH3OH           CH3OOH          COOH           
 *C2             C2H             C2H2,acetylene  C2H2,vinylidene CH2CO,ketene   
 O(CH)2O         HO(CO)2OH       C2H3,vinyl      CH3CO,acetyl    C2H4           
 C2H4O,ethylen-o CH3CHO,ethanal  CH3COOH         OHCH2COOH       C2H5           
 C2H6            C2H5OH          CH3OCH3         CH3O2CH3        C2O            
 *C3             C3H3,1-propynl  C3H3,2-propynl  C3H4,allene     C3H4,propyne   
 C3H4,cyclo-     C3H5,allyl      C3H6,propylene  C3H6,cyclo-     C3H6O,propylox 
 C3H6O,acetone   C3H6O,propanal  C3H7,n-propyl   C3H7,i-propyl   C3H8           
 C3H8O,1propanol C3H8O,2propanol C3O2            *C4             C4H2,butadiyne 
 C4H4,1,3-cyclo- C4H6,butadiene  C4H6,1butyne    C4H6,2butyne    C4H6,cyclo-    
 C4H8,1-butene   C4H8,cis2-buten C4H8,tr2-butene C4H8,isobutene  C4H8,cyclo-    
 (CH3COOH)2      C4H9,n-butyl    C4H9,i-butyl    C4H9,s-butyl    C4H9,t-butyl   
 C4H10,n-butane  C4H10,isobutane *C5             C5H6,1,3cyclo-  C5H8,cyclo-    
 C5H10,1-pentene C5H10,cyclo-    C5H11,pentyl    C5H11,t-pentyl  C5H12,n-pentane
 C5H12,i-pentane CH3C(CH3)2CH3   C6H2            C6H5,phenyl     C6H5O,phenoxy  
 C6H6            C6H5OH,phenol   C6H10,cyclo-    C6H12,1-hexene  C6H12,cyclo-   
 C6H13,n-hexyl   C6H14,n-hexane  C7H7,benzyl     C7H8            C7H8O,cresol-mx
 C7H14,1-heptene C7H15,n-heptyl  C7H16,n-heptane C7H16,2-methylh C8H8,styrene   
 C8H10,ethylbenz C8H16,1-octene  C8H17,n-octyl   C8H18,n-octane  C8H18,isooctane
 C9H19,n-nonyl   C10H8,naphthale C10H21,n-decyl  C12H9,o-bipheny C12H10,biphenyl
 HCO             HCCO            HO2             HCHO,formaldehy HCOOH          
 H2O2            (HCOOH)2        O3              C(gr)           H2O(cr)        
 H2O(L)         

 NOTE. WEIGHT FRACTION OF FUEL IN TOTAL FUELS AND OF OXIDANT IN TOTAL OXIDANTS






 WARNING!!  ASSIGNED pip =   0.00000 IS NOT PERMITTED
 TO BE LESS THAN  Pinj/Pc =  1.00696. POINT OMITTED (ROCKET)





              THEORETICAL ROCKET PERFORMANCE ASSUMING EQUILIBRIUM

            COMPOSITION DURING EXPANSION FROM FINITE AREA COMBUSTOR

 Pin =   112.0 PSIA
 Ac/At =  7.8253      Pinj/Pinf =  1.003464
 CASE =                

             REACTANT                    WT FRACTION      ENERGY      TEMP
                                          (SEE NOTE)     KJ/KG-MOL      K  
 OXIDANT     O2                           1.0000000      -146.832    293.150
 FUEL        PMMA                         1.0000000   -442140.000    293.150

 O/F=    0.93960  %FUEL= 51.556918  R,EQ.RATIO= 1.776752  PHI,EQ.RATIO= 2.040974

                 INJECTOR  COMB END  THROAT
 Pinj/P            1.0000   1.0070   1.7902
 P, BAR            7.7200   7.6666   4.3125
 T, K             2654.77  2653.18  2406.67
 RHO, KG/CU M    7.5073-1 7.4600-1 4.6395-1
 H, KJ/KG        -2279.12 -2282.70 -2845.55
 U, KJ/KG        -3307.46 -3310.40 -3775.06
 G, KJ/KG        -33785.9 -33774.2 -31411.1
 S, KJ/(KG)(K)    11.8680  11.8693  11.8693

 M, (1/n)          21.465   21.465   21.528
 (dLV/dLP)t      -1.00261 -1.00260 -1.00112
 (dLV/dLT)p        1.0573   1.0572   1.0267
 Cp, KJ/(KG)(K)    2.5177   2.5165   2.2541
 GAMMAs            1.2039   1.2040   1.2188
 SON VEL,M/SEC     1112.7   1112.4   1064.4
 MACH NUMBER        0.000    0.076    1.000

 PERFORMANCE PARAMETERS

 Ae/At                      7.8253  1.00000
 CSTAR, M/SEC               1557.9   1557.9
 CF                         0.0543   0.6832
 Ivac, M/SEC               12233.6   1937.7
 Isp, M/SEC                   84.6   1064.4


 MOLE FRACTIONS

 *CO              0.47073  0.47071  0.46733
 *CO2             0.08196  0.08199  0.08698
 *H               0.00776  0.00774  0.00363
 *H2              0.20323  0.20327  0.20981
 H2O              0.23384  0.23383  0.23141
 *O               0.00005  0.00005  0.00001
 *OH              0.00239  0.00238  0.00082
 *O2              0.00002  0.00002  0.00000

  * THERMODYNAMIC PROPERTIES FITTED TO 20000.K

    PRODUCTS WHICH WERE CONSIDERED BUT WHOSE MOLE FRACTIONS
    WERE LESS THAN 5.000000E-06 FOR ALL ASSIGNED CONDITIONS

 *C              *CH             CH2             CH3             CH2OH          
 CH3O            CH4             CH3OH           CH3OOH          COOH           
 *C2             C2H             C2H2,acetylene  C2H2,vinylidene CH2CO,ketene   
 O(CH)2O         HO(CO)2OH       C2H3,vinyl      CH3CO,acetyl    C2H4           
 C2H4O,ethylen-o CH3CHO,ethanal  CH3COOH         OHCH2COOH       C2H5           
 C2H6            C2H5OH          CH3OCH3         CH3O2CH3        C2O            
 *C3             C3H3,1-propynl  C3H3,2-propynl  C3H4,allene     C3H4,propyne   
 C3H4,cyclo-     C3H5,allyl      C3H6,propylene  C3H6,cyclo-     C3H6O,propylox 
 C3H6O,acetone   C3H6O,propanal  C3H7,n-propyl   C3H7,i-propyl   C3H8           
 C3H8O,1propanol C3H8O,2propanol C3O2            *C4             C4H2,butadiyne 
 C4H4,1,3-cyclo- C4H6,butadiene  C4H6,1butyne    C4H6,2butyne    C4H6,cyclo-    
 C4H8,1-butene   C4H8,cis2-buten C4H8,tr2-butene C4H8,isobutene  C4H8,cyclo-    
 (CH3COOH)2      C4H9,n-butyl    C4H9,i-butyl    C4H9,s-butyl    C4H9,t-butyl   
 C4H10,n-butane  C4H10,isobutane *C5             C5H6,1,3cyclo-  C5H8,cyclo-    
 C5H10,1-pentene C5H10,cyclo-    C5H11,pentyl    C5H11,t-pentyl  C5H12,n-pentane
 C5H12,i-pentane CH3C(CH3)2CH3   C6H2            C6H5,phenyl     C6H5O,phenoxy  
 C6H6            C6H5OH,phenol   C6H10,cyclo-    C6H12,1-hexene  C6H12,cyclo-   
 C6H13,n-hexyl   C6H14,n-hexane  C7H7,benzyl     C7H8            C7H8O,cresol-mx
 C7H14,1-heptene C7H15,n-heptyl  C7H16,n-heptane C7H16,2-methylh C8H8,styrene   
 C8H10,ethylbenz C8H16,1-octene  C8H17,n-octyl   C8H18,n-octane  C8H18,isooctane
 C9H19,n-nonyl   C10H8,naphthale C10H21,n-decyl  C12H9,o-bipheny C12H10,biphenyl
 HCO             HCCO            HO2             HCHO,formaldehy HCOOH          
 H2O2            (HCOOH)2        O3              C(gr)           H2O(cr)        
 H2O(L)         

 NOTE. WEIGHT FRACTION OF FUEL IN TOTAL FUELS AND OF OXIDANT IN TOTAL OXIDANTS






 WARNING!!  ASSIGNED pip =   0.00000 IS NOT PERMITTED
 TO BE LESS THAN  Pinj/Pc =  1.00696. POINT OMITTED (ROCKET)





              THEORETICAL ROCKET PERFORMANCE ASSUMING EQUILIBRIUM

            COMPOSITION DURING EXPANSION FROM FINITE AREA COMBUSTOR

 Pin =   112.0 PSIA
 Ac/At =  7.8253      Pinj/Pinf =  1.003464
 CASE =                

             REACTANT                    WT FRACTION      ENERGY      TEMP
                                          (SEE NOTE)     KJ/KG-MOL      K  
 OXIDANT     O2                           1.0000000      -146.832    293.150
 FUEL        PMMA                         1.0000000   -442140.000    293.150

 O/F=    0.93960  %FUEL= 51.556918  R,EQ.RATIO= 1.776752  PHI,EQ.RATIO= 2.040974

                 INJECTOR  COMB END  THROAT
 Pinj/P            1.0000   1.0070   1.7902
 P, BAR            7.7200   7.6666   4.3125
 T, K             2654.77  2653.18  2406.67
 RHO, KG/CU M    7.5073-1 7.4600-1 4.6395-1
 H, KJ/KG        -2279.12 -2282.70 -2845.55
 U, KJ/KG        -3307.46 -3310.40 -3775.06
 G, KJ/KG        -33785.9 -33774.2 -31411.1
 S, KJ/(KG)(K)    11.8680  11.8693  11.8693

 M, (1/n)          21.465   21.465   21.528
 (dLV/dLP)t      -1.00261 -1.00260 -1.00112
 (dLV/dLT)p        1.0573   1.0572   1.0267
 Cp, KJ/(KG)(K)    2.5177   2.5165   2.2541
 GAMMAs            1.2039   1.2040   1.2188
 SON VEL,M/SEC     1112.7   1112.4   1064.4
 MACH NUMBER        0.000    0.076    1.000

 PERFORMANCE PARAMETERS

 Ae/At                      7.8253  1.00000
 CSTAR, M/SEC               1557.9   1557.9
 CF                         0.0543   0.6832
 Ivac, M/SEC               12233.6   1937.7
 Isp, M/SEC                   84.6   1064.4


 MOLE FRACTIONS

 *CO              0.47073  0.47071  0.46733
 *CO2             0.08196  0.08199  0.08698
 *H               0.00776  0.00774  0.00363
 *H2              0.20323  0.20327  0.20981
 H2O              0.23384  0.23383  0.23141
 *O               0.00005  0.00005  0.00001
 *OH              0.00239  0.00238  0.00082
 *O2              0.00002  0.00002  0.00000

  * THERMODYNAMIC PROPERTIES FITTED TO 20000.K

    PRODUCTS WHICH WERE CONSIDERED BUT WHOSE MOLE FRACTIONS
    WERE LESS THAN 5.000000E-06 FOR ALL ASSIGNED CONDITIONS

 *C              *CH             CH2             CH3             CH2OH          
 CH3O            CH4             CH3OH           CH3OOH          COOH           
 *C2             C2H             C2H2,acetylene  C2H2,vinylidene CH2CO,ketene   
 O(CH)2O         HO(CO)2OH       C2H3,vinyl      CH3CO,acetyl    C2H4           
 C2H4O,ethylen-o CH3CHO,ethanal  CH3COOH         OHCH2COOH       C2H5           
 C2H6            C2H5OH          CH3OCH3         CH3O2CH3        C2O            
 *C3             C3H3,1-propynl  C3H3,2-propynl  C3H4,allene     C3H4,propyne   
 C3H4,cyclo-     C3H5,allyl      C3H6,propylene  C3H6,cyclo-     C3H6O,propylox 
 C3H6O,acetone   C3H6O,propanal  C3H7,n-propyl   C3H7,i-propyl   C3H8           
 C3H8O,1propanol C3H8O,2propanol C3O2            *C4             C4H2,butadiyne 
 C4H4,1,3-cyclo- C4H6,butadiene  C4H6,1butyne    C4H6,2butyne    C4H6,cyclo-    
 C4H8,1-butene   C4H8,cis2-buten C4H8,tr2-butene C4H8,isobutene  C4H8,cyclo-    
 (CH3COOH)2      C4H9,n-butyl    C4H9,i-butyl    C4H9,s-butyl    C4H9,t-butyl   
 C4H10,n-butane  C4H10,isobutane *C5             C5H6,1,3cyclo-  C5H8,cyclo-    
 C5H10,1-pentene C5H10,cyclo-    C5H11,pentyl    C5H11,t-pentyl  C5H12,n-pentane
 C5H12,i-pentane CH3C(CH3)2CH3   C6H2            C6H5,phenyl     C6H5O,phenoxy  
 C6H6            C6H5OH,phenol   C6H10,cyclo-    C6H12,1-hexene  C6H12,cyclo-   
 C6H13,n-hexyl   C6H14,n-hexane  C7H7,benzyl     C7H8            C7H8O,cresol-mx
 C7H14,1-heptene C7H15,n-heptyl  C7H16,n-heptane C7H16,2-methylh C8H8,styrene   
 C8H10,ethylbenz C8H16,1-octene  C8H17,n-octyl   C8H18,n-octane  C8H18,isooctane
 C9H19,n-nonyl   C10H8,naphthale C10H21,n-decyl  C12H9,o-bipheny C12H10,biphenyl
 HCO             HCCO            HO2             HCHO,formaldehy HCOOH          
 H2O2            (HCOOH)2        O3              C(gr)           H2O(cr)        
 H2O(L)         

 NOTE. WEIGHT FRACTION OF FUEL IN TOTAL FUELS AND OF OXIDANT IN TOTAL OXIDANTS






 WARNING!!  ASSIGNED pip =   0.00000 IS NOT PERMITTED
 TO BE LESS THAN  Pinj/Pc =  1.00696. POINT OMITTED (ROCKET)





              THEORETICAL ROCKET PERFORMANCE ASSUMING EQUILIBRIUM

            COMPOSITION DURING EXPANSION FROM FINITE AREA COMBUSTOR

 Pin =   112.0 PSIA
 Ac/At =  7.8253      Pinj/Pinf =  1.003464
 CASE =                

             REACTANT                    WT FRACTION      ENERGY      TEMP
                                          (SEE NOTE)     KJ/KG-MOL      K  
 OXIDANT     O2                           1.0000000      -146.832    293.150
 FUEL        PMMA                         1.0000000   -442140.000    293.150

 O/F=    0.93960  %FUEL= 51.556918  R,EQ.RATIO= 1.776752  PHI,EQ.RATIO= 2.040974

                 INJECTOR  COMB END  THROAT
 Pinj/P            1.0000   1.0070   1.7902
 P, BAR            7.7200   7.6666   4.3125
 T, K             2654.77  2653.18  2406.67
 RHO, KG/CU M    7.5073-1 7.4600-1 4.6395-1
 H, KJ/KG        -2279.12 -2282.70 -2845.55
 U, KJ/KG        -3307.46 -3310.40 -3775.06
 G, KJ/KG        -33785.9 -33774.2 -31411.1
 S, KJ/(KG)(K)    11.8680  11.8693  11.8693

 M, (1/n)          21.465   21.465   21.528
 (dLV/dLP)t      -1.00261 -1.00260 -1.00112
 (dLV/dLT)p        1.0573   1.0572   1.0267
 Cp, KJ/(KG)(K)    2.5177   2.5165   2.2541
 GAMMAs            1.2039   1.2040   1.2188
 SON VEL,M/SEC     1112.7   1112.4   1064.4
 MACH NUMBER        0.000    0.076    1.000

 PERFORMANCE PARAMETERS

 Ae/At                      7.8253  1.00000
 CSTAR, M/SEC               1557.9   1557.9
 CF                         0.0543   0.6832
 Ivac, M/SEC               12233.6   1937.7
 Isp, M/SEC                   84.6   1064.4


 MOLE FRACTIONS

 *CO              0.47073  0.47071  0.46733
 *CO2             0.08196  0.08199  0.08698
 *H               0.00776  0.00774  0.00363
 *H2              0.20323  0.20327  0.20981
 H2O              0.23384  0.23383  0.23141
 *O               0.00005  0.00005  0.00001
 *OH              0.00239  0.00238  0.00082
 *O2              0.00002  0.00002  0.00000

  * THERMODYNAMIC PROPERTIES FITTED TO 20000.K

    PRODUCTS WHICH WERE CONSIDERED BUT WHOSE MOLE FRACTIONS
    WERE LESS THAN 5.000000E-06 FOR ALL ASSIGNED CONDITIONS

 *C              *CH             CH2             CH3             CH2OH          
 CH3O            CH4             CH3OH           CH3OOH          COOH           
 *C2             C2H             C2H2,acetylene  C2H2,vinylidene CH2CO,ketene   
 O(CH)2O         HO(CO)2OH       C2H3,vinyl      CH3CO,acetyl    C2H4           
 C2H4O,ethylen-o CH3CHO,ethanal  CH3COOH         OHCH2COOH       C2H5           
 C2H6            C2H5OH          CH3OCH3         CH3O2CH3        C2O            
 *C3             C3H3,1-propynl  C3H3,2-propynl  C3H4,allene     C3H4,propyne   
 C3H4,cyclo-     C3H5,allyl      C3H6,propylene  C3H6,cyclo-     C3H6O,propylox 
 C3H6O,acetone   C3H6O,propanal  C3H7,n-propyl   C3H7,i-propyl   C3H8           
 C3H8O,1propanol C3H8O,2propanol C3O2            *C4             C4H2,butadiyne 
 C4H4,1,3-cyclo- C4H6,butadiene  C4H6,1butyne    C4H6,2butyne    C4H6,cyclo-    
 C4H8,1-butene   C4H8,cis2-buten C4H8,tr2-butene C4H8,isobutene  C4H8,cyclo-    
 (CH3COOH)2      C4H9,n-butyl    C4H9,i-butyl    C4H9,s-butyl    C4H9,t-butyl   
 C4H10,n-butane  C4H10,isobutane *C5             C5H6,1,3cyclo-  C5H8,cyclo-    
 C5H10,1-pentene C5H10,cyclo-    C5H11,pentyl    C5H11,t-pentyl  C5H12,n-pentane
 C5H12,i-pentane CH3C(CH3)2CH3   C6H2            C6H5,phenyl     C6H5O,phenoxy  
 C6H6            C6H5OH,phenol   C6H10,cyclo-    C6H12,1-hexene  C6H12,cyclo-   
 C6H13,n-hexyl   C6H14,n-hexane  C7H7,benzyl     C7H8            C7H8O,cresol-mx
 C7H14,1-heptene C7H15,n-heptyl  C7H16,n-heptane C7H16,2-methylh C8H8,styrene   
 C8H10,ethylbenz C8H16,1-octene  C8H17,n-octyl   C8H18,n-octane  C8H18,isooctane
 C9H19,n-nonyl   C10H8,naphthale C10H21,n-decyl  C12H9,o-bipheny C12H10,biphenyl
 HCO             HCCO            HO2             HCHO,formaldehy HCOOH          
 H2O2            (HCOOH)2        O3              C(gr)           H2O(cr)        
 H2O(L)         

 NOTE. WEIGHT FRACTION OF FUEL IN TOTAL FUELS AND OF OXIDANT IN TOTAL OXIDANTS






 WARNING!!  ASSIGNED pip =   0.00000 IS NOT PERMITTED
 TO BE LESS THAN  Pinj/Pc =  1.00696. POINT OMITTED (ROCKET)





              THEORETICAL ROCKET PERFORMANCE ASSUMING EQUILIBRIUM

            COMPOSITION DURING EXPANSION FROM FINITE AREA COMBUSTOR

 Pin =   112.0 PSIA
 Ac/At =  7.8253      Pinj/Pinf =  1.003464
 CASE =                

             REACTANT                    WT FRACTION      ENERGY      TEMP
                                          (SEE NOTE)     KJ/KG-MOL      K  
 OXIDANT     O2                           1.0000000      -146.832    293.150
 FUEL        PMMA                         1.0000000   -442140.000    293.150

 O/F=    0.93960  %FUEL= 51.556918  R,EQ.RATIO= 1.776752  PHI,EQ.RATIO= 2.040974

                 INJECTOR  COMB END  THROAT
 Pinj/P            1.0000   1.0070   1.7902
 P, BAR            7.7200   7.6666   4.3125
 T, K             2654.77  2653.18  2406.67
 RHO, KG/CU M    7.5073-1 7.4600-1 4.6395-1
 H, KJ/KG        -2279.12 -2282.70 -2845.55
 U, KJ/KG        -3307.46 -3310.40 -3775.06
 G, KJ/KG        -33785.9 -33774.2 -31411.1
 S, KJ/(KG)(K)    11.8680  11.8693  11.8693

 M, (1/n)          21.465   21.465   21.528
 (dLV/dLP)t      -1.00261 -1.00260 -1.00112
 (dLV/dLT)p        1.0573   1.0572   1.0267
 Cp, KJ/(KG)(K)    2.5177   2.5165   2.2541
 GAMMAs            1.2039   1.2040   1.2188
 SON VEL,M/SEC     1112.7   1112.4   1064.4
 MACH NUMBER        0.000    0.076    1.000

 PERFORMANCE PARAMETERS

 Ae/At                      7.8253  1.00000
 CSTAR, M/SEC               1557.9   1557.9
 CF                         0.0543   0.6832
 Ivac, M/SEC               12233.6   1937.7
 Isp, M/SEC                   84.6   1064.4


 MOLE FRACTIONS

 *CO              0.47073  0.47071  0.46733
 *CO2             0.08196  0.08199  0.08698
 *H               0.00776  0.00774  0.00363
 *H2              0.20323  0.20327  0.20981
 H2O              0.23384  0.23383  0.23141
 *O               0.00005  0.00005  0.00001
 *OH              0.00239  0.00238  0.00082
 *O2              0.00002  0.00002  0.00000

  * THERMODYNAMIC PROPERTIES FITTED TO 20000.K

    PRODUCTS WHICH WERE CONSIDERED BUT WHOSE MOLE FRACTIONS
    WERE LESS THAN 5.000000E-06 FOR ALL ASSIGNED CONDITIONS

 *C              *CH             CH2             CH3             CH2OH          
 CH3O            CH4             CH3OH           CH3OOH          COOH           
 *C2             C2H             C2H2,acetylene  C2H2,vinylidene CH2CO,ketene   
 O(CH)2O         HO(CO)2OH       C2H3,vinyl      CH3CO,acetyl    C2H4           
 C2H4O,ethylen-o CH3CHO,ethanal  CH3COOH         OHCH2COOH       C2H5           
 C2H6            C2H5OH          CH3OCH3         CH3O2CH3        C2O            
 *C3             C3H3,1-propynl  C3H3,2-propynl  C3H4,allene     C3H4,propyne   
 C3H4,cyclo-     C3H5,allyl      C3H6,propylene  C3H6,cyclo-     C3H6O,propylox 
 C3H6O,acetone   C3H6O,propanal  C3H7,n-propyl   C3H7,i-propyl   C3H8           
 C3H8O,1propanol C3H8O,2propanol C3O2            *C4             C4H2,butadiyne 
 C4H4,1,3-cyclo- C4H6,butadiene  C4H6,1butyne    C4H6,2butyne    C4H6,cyclo-    
 C4H8,1-butene   C4H8,cis2-buten C4H8,tr2-butene C4H8,isobutene  C4H8,cyclo-    
 (CH3COOH)2      C4H9,n-butyl    C4H9,i-butyl    C4H9,s-butyl    C4H9,t-butyl   
 C4H10,n-butane  C4H10,isobutane *C5             C5H6,1,3cyclo-  C5H8,cyclo-    
 C5H10,1-pentene C5H10,cyclo-    C5H11,pentyl    C5H11,t-pentyl  C5H12,n-pentane
 C5H12,i-pentane CH3C(CH3)2CH3   C6H2            C6H5,phenyl     C6H5O,phenoxy  
 C6H6            C6H5OH,phenol   C6H10,cyclo-    C6H12,1-hexene  C6H12,cyclo-   
 C6H13,n-hexyl   C6H14,n-hexane  C7H7,benzyl     C7H8            C7H8O,cresol-mx
 C7H14,1-heptene C7H15,n-heptyl  C7H16,n-heptane C7H16,2-methylh C8H8,styrene   
 C8H10,ethylbenz C8H16,1-octene  C8H17,n-octyl   C8H18,n-octane  C8H18,isooctane
 C9H19,n-nonyl   C10H8,naphthale C10H21,n-decyl  C12H9,o-bipheny C12H10,biphenyl
 HCO             HCCO            HO2             HCHO,formaldehy HCOOH          
 H2O2            (HCOOH)2        O3              C(gr)           H2O(cr)        
 H2O(L)         

 NOTE. WEIGHT FRACTION OF FUEL IN TOTAL FUELS AND OF OXIDANT IN TOTAL OXIDANTS






 WARNING!!  ASSIGNED pip =   0.00000 IS NOT PERMITTED
 TO BE LESS THAN  Pinj/Pc =  1.00696. POINT OMITTED (ROCKET)





              THEORETICAL ROCKET PERFORMANCE ASSUMING EQUILIBRIUM

            COMPOSITION DURING EXPANSION FROM FINITE AREA COMBUSTOR

 Pin =   112.0 PSIA
 Ac/At =  7.8253      Pinj/Pinf =  1.003464
 CASE =                

             REACTANT                    WT FRACTION      ENERGY      TEMP
                                          (SEE NOTE)     KJ/KG-MOL      K  
 OXIDANT     O2                           1.0000000      -146.832    293.150
 FUEL        PMMA                         1.0000000   -442140.000    293.150

 O/F=    0.93960  %FUEL= 51.556918  R,EQ.RATIO= 1.776752  PHI,EQ.RATIO= 2.040974

                 INJECTOR  COMB END  THROAT
 Pinj/P            1.0000   1.0070   1.7902
 P, BAR            7.7200   7.6666   4.3125
 T, K             2654.77  2653.18  2406.67
 RHO, KG/CU M    7.5073-1 7.4600-1 4.6395-1
 H, KJ/KG        -2279.12 -2282.70 -2845.55
 U, KJ/KG        -3307.46 -3310.40 -3775.06
 G, KJ/KG        -33785.9 -33774.2 -31411.1
 S, KJ/(KG)(K)    11.8680  11.8693  11.8693

 M, (1/n)          21.465   21.465   21.528
 (dLV/dLP)t      -1.00261 -1.00260 -1.00112
 (dLV/dLT)p        1.0573   1.0572   1.0267
 Cp, KJ/(KG)(K)    2.5177   2.5165   2.2541
 GAMMAs            1.2039   1.2040   1.2188
 SON VEL,M/SEC     1112.7   1112.4   1064.4
 MACH NUMBER        0.000    0.076    1.000

 PERFORMANCE PARAMETERS

 Ae/At                      7.8253  1.00000
 CSTAR, M/SEC               1557.9   1557.9
 CF                         0.0543   0.6832
 Ivac, M/SEC               12233.6   1937.7
 Isp, M/SEC                   84.6   1064.4


 MOLE FRACTIONS

 *CO              0.47073  0.47071  0.46733
 *CO2             0.08196  0.08199  0.08698
 *H               0.00776  0.00774  0.00363
 *H2              0.20323  0.20327  0.20981
 H2O              0.23384  0.23383  0.23141
 *O               0.00005  0.00005  0.00001
 *OH              0.00239  0.00238  0.00082
 *O2              0.00002  0.00002  0.00000

  * THERMODYNAMIC PROPERTIES FITTED TO 20000.K

    PRODUCTS WHICH WERE CONSIDERED BUT WHOSE MOLE FRACTIONS
    WERE LESS THAN 5.000000E-06 FOR ALL ASSIGNED CONDITIONS

 *C              *CH             CH2             CH3             CH2OH          
 CH3O            CH4             CH3OH           CH3OOH          COOH           
 *C2             C2H             C2H2,acetylene  C2H2,vinylidene CH2CO,ketene   
 O(CH)2O         HO(CO)2OH       C2H3,vinyl      CH3CO,acetyl    C2H4           
 C2H4O,ethylen-o CH3CHO,ethanal  CH3COOH         OHCH2COOH       C2H5           
 C2H6            C2H5OH          CH3OCH3         CH3O2CH3        C2O            
 *C3             C3H3,1-propynl  C3H3,2-propynl  C3H4,allene     C3H4,propyne   
 C3H4,cyclo-     C3H5,allyl      C3H6,propylene  C3H6,cyclo-     C3H6O,propylox 
 C3H6O,acetone   C3H6O,propanal  C3H7,n-propyl   C3H7,i-propyl   C3H8           
 C3H8O,1propanol C3H8O,2propanol C3O2            *C4             C4H2,butadiyne 
 C4H4,1,3-cyclo- C4H6,butadiene  C4H6,1butyne    C4H6,2butyne    C4H6,cyclo-    
 C4H8,1-butene   C4H8,cis2-buten C4H8,tr2-butene C4H8,isobutene  C4H8,cyclo-    
 (CH3COOH)2      C4H9,n-butyl    C4H9,i-butyl    C4H9,s-butyl    C4H9,t-butyl   
 C4H10,n-butane  C4H10,isobutane *C5             C5H6,1,3cyclo-  C5H8,cyclo-    
 C5H10,1-pentene C5H10,cyclo-    C5H11,pentyl    C5H11,t-pentyl  C5H12,n-pentane
 C5H12,i-pentane CH3C(CH3)2CH3   C6H2            C6H5,phenyl     C6H5O,phenoxy  
 C6H6            C6H5OH,phenol   C6H10,cyclo-    C6H12,1-hexene  C6H12,cyclo-   
 C6H13,n-hexyl   C6H14,n-hexane  C7H7,benzyl     C7H8            C7H8O,cresol-mx
 C7H14,1-heptene C7H15,n-heptyl  C7H16,n-heptane C7H16,2-methylh C8H8,styrene   
 C8H10,ethylbenz C8H16,1-octene  C8H17,n-octyl   C8H18,n-octane  C8H18,isooctane
 C9H19,n-nonyl   C10H8,naphthale C10H21,n-decyl  C12H9,o-bipheny C12H10,biphenyl
 HCO             HCCO            HO2             HCHO,formaldehy HCOOH          
 H2O2            (HCOOH)2        O3              C(gr)           H2O(cr)        
 H2O(L)         

 NOTE. WEIGHT FRACTION OF FUEL IN TOTAL FUELS AND OF OXIDANT IN TOTAL OXIDANTS






 WARNING!!  ASSIGNED pip =   0.00000 IS NOT PERMITTED
 TO BE LESS THAN  Pinj/Pc =  1.00696. POINT OMITTED (ROCKET)





              THEORETICAL ROCKET PERFORMANCE ASSUMING EQUILIBRIUM

            COMPOSITION DURING EXPANSION FROM FINITE AREA COMBUSTOR

 Pin =   112.0 PSIA
 Ac/At =  7.8253      Pinj/Pinf =  1.003464
 CASE =                

             REACTANT                    WT FRACTION      ENERGY      TEMP
                                          (SEE NOTE)     KJ/KG-MOL      K  
 OXIDANT     O2                           1.0000000      -146.832    293.150
 FUEL        PMMA                         1.0000000   -442140.000    293.150

 O/F=    0.93960  %FUEL= 51.556918  R,EQ.RATIO= 1.776752  PHI,EQ.RATIO= 2.040974

                 INJECTOR  COMB END  THROAT
 Pinj/P            1.0000   1.0070   1.7902
 P, BAR            7.7200   7.6666   4.3125
 T, K             2654.77  2653.18  2406.67
 RHO, KG/CU M    7.5073-1 7.4600-1 4.6395-1
 H, KJ/KG        -2279.12 -2282.70 -2845.55
 U, KJ/KG        -3307.46 -3310.40 -3775.06
 G, KJ/KG        -33785.9 -33774.2 -31411.1
 S, KJ/(KG)(K)    11.8680  11.8693  11.8693

 M, (1/n)          21.465   21.465   21.528
 (dLV/dLP)t      -1.00261 -1.00260 -1.00112
 (dLV/dLT)p        1.0573   1.0572   1.0267
 Cp, KJ/(KG)(K)    2.5177   2.5165   2.2541
 GAMMAs            1.2039   1.2040   1.2188
 SON VEL,M/SEC     1112.7   1112.4   1064.4
 MACH NUMBER        0.000    0.076    1.000

 PERFORMANCE PARAMETERS

 Ae/At                      7.8253  1.00000
 CSTAR, M/SEC               1557.9   1557.9
 CF                         0.0543   0.6832
 Ivac, M/SEC               12233.6   1937.7
 Isp, M/SEC                   84.6   1064.4


 MOLE FRACTIONS

 *CO              0.47073  0.47071  0.46733
 *CO2             0.08196  0.08199  0.08698
 *H               0.00776  0.00774  0.00363
 *H2              0.20323  0.20327  0.20981
 H2O              0.23384  0.23383  0.23141
 *O               0.00005  0.00005  0.00001
 *OH              0.00239  0.00238  0.00082
 *O2              0.00002  0.00002  0.00000

  * THERMODYNAMIC PROPERTIES FITTED TO 20000.K

    PRODUCTS WHICH WERE CONSIDERED BUT WHOSE MOLE FRACTIONS
    WERE LESS THAN 5.000000E-06 FOR ALL ASSIGNED CONDITIONS

 *C              *CH             CH2             CH3             CH2OH          
 CH3O            CH4             CH3OH           CH3OOH          COOH           
 *C2             C2H             C2H2,acetylene  C2H2,vinylidene CH2CO,ketene   
 O(CH)2O         HO(CO)2OH       C2H3,vinyl      CH3CO,acetyl    C2H4           
 C2H4O,ethylen-o CH3CHO,ethanal  CH3COOH         OHCH2COOH       C2H5           
 C2H6            C2H5OH          CH3OCH3         CH3O2CH3        C2O            
 *C3             C3H3,1-propynl  C3H3,2-propynl  C3H4,allene     C3H4,propyne   
 C3H4,cyclo-     C3H5,allyl      C3H6,propylene  C3H6,cyclo-     C3H6O,propylox 
 C3H6O,acetone   C3H6O,propanal  C3H7,n-propyl   C3H7,i-propyl   C3H8           
 C3H8O,1propanol C3H8O,2propanol C3O2            *C4             C4H2,butadiyne 
 C4H4,1,3-cyclo- C4H6,butadiene  C4H6,1butyne    C4H6,2butyne    C4H6,cyclo-    
 C4H8,1-butene   C4H8,cis2-buten C4H8,tr2-butene C4H8,isobutene  C4H8,cyclo-    
 (CH3COOH)2      C4H9,n-butyl    C4H9,i-butyl    C4H9,s-butyl    C4H9,t-butyl   
 C4H10,n-butane  C4H10,isobutane *C5             C5H6,1,3cyclo-  C5H8,cyclo-    
 C5H10,1-pentene C5H10,cyclo-    C5H11,pentyl    C5H11,t-pentyl  C5H12,n-pentane
 C5H12,i-pentane CH3C(CH3)2CH3   C6H2            C6H5,phenyl     C6H5O,phenoxy  
 C6H6            C6H5OH,phenol   C6H10,cyclo-    C6H12,1-hexene  C6H12,cyclo-   
 C6H13,n-hexyl   C6H14,n-hexane  C7H7,benzyl     C7H8            C7H8O,cresol-mx
 C7H14,1-heptene C7H15,n-heptyl  C7H16,n-heptane C7H16,2-methylh C8H8,styrene   
 C8H10,ethylbenz C8H16,1-octene  C8H17,n-octyl   C8H18,n-octane  C8H18,isooctane
 C9H19,n-nonyl   C10H8,naphthale C10H21,n-decyl  C12H9,o-bipheny C12H10,biphenyl
 HCO             HCCO            HO2             HCHO,formaldehy HCOOH          
 H2O2            (HCOOH)2        O3              C(gr)           H2O(cr)        
 H2O(L)         

 NOTE. WEIGHT FRACTION OF FUEL IN TOTAL FUELS AND OF OXIDANT IN TOTAL OXIDANTS






 WARNING!!  ASSIGNED pip =   0.00000 IS NOT PERMITTED
 TO BE LESS THAN  Pinj/Pc =  1.00696. POINT OMITTED (ROCKET)





              THEORETICAL ROCKET PERFORMANCE ASSUMING EQUILIBRIUM

            COMPOSITION DURING EXPANSION FROM FINITE AREA COMBUSTOR

 Pin =   112.0 PSIA
 Ac/At =  7.8253      Pinj/Pinf =  1.003464
 CASE =                

             REACTANT                    WT FRACTION      ENERGY      TEMP
                                          (SEE NOTE)     KJ/KG-MOL      K  
 OXIDANT     O2                           1.0000000      -146.832    293.150
 FUEL        PMMA                         1.0000000   -442140.000    293.150

 O/F=    0.93960  %FUEL= 51.556918  R,EQ.RATIO= 1.776752  PHI,EQ.RATIO= 2.040974

                 INJECTOR  COMB END  THROAT
 Pinj/P            1.0000   1.0070   1.7902
 P, BAR            7.7200   7.6666   4.3125
 T, K             2654.77  2653.18  2406.67
 RHO, KG/CU M    7.5073-1 7.4600-1 4.6395-1
 H, KJ/KG        -2279.12 -2282.70 -2845.55
 U, KJ/KG        -3307.46 -3310.40 -3775.06
 G, KJ/KG        -33785.9 -33774.2 -31411.1
 S, KJ/(KG)(K)    11.8680  11.8693  11.8693

 M, (1/n)          21.465   21.465   21.528
 (dLV/dLP)t      -1.00261 -1.00260 -1.00112
 (dLV/dLT)p        1.0573   1.0572   1.0267
 Cp, KJ/(KG)(K)    2.5177   2.5165   2.2541
 GAMMAs            1.2039   1.2040   1.2188
 SON VEL,M/SEC     1112.7   1112.4   1064.4
 MACH NUMBER        0.000    0.076    1.000

 PERFORMANCE PARAMETERS

 Ae/At                      7.8253  1.00000
 CSTAR, M/SEC               1557.9   1557.9
 CF                         0.0543   0.6832
 Ivac, M/SEC               12233.6   1937.7
 Isp, M/SEC                   84.6   1064.4


 MOLE FRACTIONS

 *CO              0.47073  0.47071  0.46733
 *CO2             0.08196  0.08199  0.08698
 *H               0.00776  0.00774  0.00363
 *H2              0.20323  0.20327  0.20981
 H2O              0.23384  0.23383  0.23141
 *O               0.00005  0.00005  0.00001
 *OH              0.00239  0.00238  0.00082
 *O2              0.00002  0.00002  0.00000

  * THERMODYNAMIC PROPERTIES FITTED TO 20000.K

    PRODUCTS WHICH WERE CONSIDERED BUT WHOSE MOLE FRACTIONS
    WERE LESS THAN 5.000000E-06 FOR ALL ASSIGNED CONDITIONS

 *C              *CH             CH2             CH3             CH2OH          
 CH3O            CH4             CH3OH           CH3OOH          COOH           
 *C2             C2H             C2H2,acetylene  C2H2,vinylidene CH2CO,ketene   
 O(CH)2O         HO(CO)2OH       C2H3,vinyl      CH3CO,acetyl    C2H4           
 C2H4O,ethylen-o CH3CHO,ethanal  CH3COOH         OHCH2COOH       C2H5           
 C2H6            C2H5OH          CH3OCH3         CH3O2CH3        C2O            
 *C3             C3H3,1-propynl  C3H3,2-propynl  C3H4,allene     C3H4,propyne   
 C3H4,cyclo-     C3H5,allyl      C3H6,propylene  C3H6,cyclo-     C3H6O,propylox 
 C3H6O,acetone   C3H6O,propanal  C3H7,n-propyl   C3H7,i-propyl   C3H8           
 C3H8O,1propanol C3H8O,2propanol C3O2            *C4             C4H2,butadiyne 
 C4H4,1,3-cyclo- C4H6,butadiene  C4H6,1butyne    C4H6,2butyne    C4H6,cyclo-    
 C4H8,1-butene   C4H8,cis2-buten C4H8,tr2-butene C4H8,isobutene  C4H8,cyclo-    
 (CH3COOH)2      C4H9,n-butyl    C4H9,i-butyl    C4H9,s-butyl    C4H9,t-butyl   
 C4H10,n-butane  C4H10,isobutane *C5             C5H6,1,3cyclo-  C5H8,cyclo-    
 C5H10,1-pentene C5H10,cyclo-    C5H11,pentyl    C5H11,t-pentyl  C5H12,n-pentane
 C5H12,i-pentane CH3C(CH3)2CH3   C6H2            C6H5,phenyl     C6H5O,phenoxy  
 C6H6            C6H5OH,phenol   C6H10,cyclo-    C6H12,1-hexene  C6H12,cyclo-   
 C6H13,n-hexyl   C6H14,n-hexane  C7H7,benzyl     C7H8            C7H8O,cresol-mx
 C7H14,1-heptene C7H15,n-heptyl  C7H16,n-heptane C7H16,2-methylh C8H8,styrene   
 C8H10,ethylbenz C8H16,1-octene  C8H17,n-octyl   C8H18,n-octane  C8H18,isooctane
 C9H19,n-nonyl   C10H8,naphthale C10H21,n-decyl  C12H9,o-bipheny C12H10,biphenyl
 HCO             HCCO            HO2             HCHO,formaldehy HCOOH          
 H2O2            (HCOOH)2        O3              C(gr)           H2O(cr)        
 H2O(L)         

 NOTE. WEIGHT FRACTION OF FUEL IN TOTAL FUELS AND OF OXIDANT IN TOTAL OXIDANTS






 WARNING!!  ASSIGNED pip =   0.00000 IS NOT PERMITTED
 TO BE LESS THAN  Pinj/Pc =  1.00696. POINT OMITTED (ROCKET)





              THEORETICAL ROCKET PERFORMANCE ASSUMING EQUILIBRIUM

            COMPOSITION DURING EXPANSION FROM FINITE AREA COMBUSTOR

 Pin =   112.0 PSIA
 Ac/At =  7.8253      Pinj/Pinf =  1.003464
 CASE =                

             REACTANT                    WT FRACTION      ENERGY      TEMP
                                          (SEE NOTE)     KJ/KG-MOL      K  
 OXIDANT     O2                           1.0000000      -146.832    293.150
 FUEL        PMMA                         1.0000000   -442140.000    293.150

 O/F=    0.93960  %FUEL= 51.556918  R,EQ.RATIO= 1.776752  PHI,EQ.RATIO= 2.040974

                 INJECTOR  COMB END  THROAT
 Pinj/P            1.0000   1.0070   1.7902
 P, BAR            7.7200   7.6666   4.3125
 T, K             2654.77  2653.18  2406.67
 RHO, KG/CU M    7.5073-1 7.4600-1 4.6395-1
 H, KJ/KG        -2279.12 -2282.70 -2845.55
 U, KJ/KG        -3307.46 -3310.40 -3775.06
 G, KJ/KG        -33785.9 -33774.2 -31411.1
 S, KJ/(KG)(K)    11.8680  11.8693  11.8693

 M, (1/n)          21.465   21.465   21.528
 (dLV/dLP)t      -1.00261 -1.00260 -1.00112
 (dLV/dLT)p        1.0573   1.0572   1.0267
 Cp, KJ/(KG)(K)    2.5177   2.5165   2.2541
 GAMMAs            1.2039   1.2040   1.2188
 SON VEL,M/SEC     1112.7   1112.4   1064.4
 MACH NUMBER        0.000    0.076    1.000

 PERFORMANCE PARAMETERS

 Ae/At                      7.8253  1.00000
 CSTAR, M/SEC               1557.9   1557.9
 CF                         0.0543   0.6832
 Ivac, M/SEC               12233.6   1937.7
 Isp, M/SEC                   84.6   1064.4


 MOLE FRACTIONS

 *CO              0.47073  0.47071  0.46733
 *CO2             0.08196  0.08199  0.08698
 *H               0.00776  0.00774  0.00363
 *H2              0.20323  0.20327  0.20981
 H2O              0.23384  0.23383  0.23141
 *O               0.00005  0.00005  0.00001
 *OH              0.00239  0.00238  0.00082
 *O2              0.00002  0.00002  0.00000

  * THERMODYNAMIC PROPERTIES FITTED TO 20000.K

    PRODUCTS WHICH WERE CONSIDERED BUT WHOSE MOLE FRACTIONS
    WERE LESS THAN 5.000000E-06 FOR ALL ASSIGNED CONDITIONS

 *C              *CH             CH2             CH3             CH2OH          
 CH3O            CH4             CH3OH           CH3OOH          COOH           
 *C2             C2H             C2H2,acetylene  C2H2,vinylidene CH2CO,ketene   
 O(CH)2O         HO(CO)2OH       C2H3,vinyl      CH3CO,acetyl    C2H4           
 C2H4O,ethylen-o CH3CHO,ethanal  CH3COOH         OHCH2COOH       C2H5           
 C2H6            C2H5OH          CH3OCH3         CH3O2CH3        C2O            
 *C3             C3H3,1-propynl  C3H3,2-propynl  C3H4,allene     C3H4,propyne   
 C3H4,cyclo-     C3H5,allyl      C3H6,propylene  C3H6,cyclo-     C3H6O,propylox 
 C3H6O,acetone   C3H6O,propanal  C3H7,n-propyl   C3H7,i-propyl   C3H8           
 C3H8O,1propanol C3H8O,2propanol C3O2            *C4             C4H2,butadiyne 
 C4H4,1,3-cyclo- C4H6,butadiene  C4H6,1butyne    C4H6,2butyne    C4H6,cyclo-    
 C4H8,1-butene   C4H8,cis2-buten C4H8,tr2-butene C4H8,isobutene  C4H8,cyclo-    
 (CH3COOH)2      C4H9,n-butyl    C4H9,i-butyl    C4H9,s-butyl    C4H9,t-butyl   
 C4H10,n-butane  C4H10,isobutane *C5             C5H6,1,3cyclo-  C5H8,cyclo-    
 C5H10,1-pentene C5H10,cyclo-    C5H11,pentyl    C5H11,t-pentyl  C5H12,n-pentane
 C5H12,i-pentane CH3C(CH3)2CH3   C6H2            C6H5,phenyl     C6H5O,phenoxy  
 C6H6            C6H5OH,phenol   C6H10,cyclo-    C6H12,1-hexene  C6H12,cyclo-   
 C6H13,n-hexyl   C6H14,n-hexane  C7H7,benzyl     C7H8            C7H8O,cresol-mx
 C7H14,1-heptene C7H15,n-heptyl  C7H16,n-heptane C7H16,2-methylh C8H8,styrene   
 C8H10,ethylbenz C8H16,1-octene  C8H17,n-octyl   C8H18,n-octane  C8H18,isooctane
 C9H19,n-nonyl   C10H8,naphthale C10H21,n-decyl  C12H9,o-bipheny C12H10,biphenyl
 HCO             HCCO            HO2             HCHO,formaldehy HCOOH          
 H2O2            (HCOOH)2        O3              C(gr)           H2O(cr)        
 H2O(L)         

 NOTE. WEIGHT FRACTION OF FUEL IN TOTAL FUELS AND OF OXIDANT IN TOTAL OXIDANTS






 WARNING!!  ASSIGNED pip =   0.00000 IS NOT PERMITTED
 TO BE LESS THAN  Pinj/Pc =  1.00696. POINT OMITTED (ROCKET)





              THEORETICAL ROCKET PERFORMANCE ASSUMING EQUILIBRIUM

            COMPOSITION DURING EXPANSION FROM FINITE AREA COMBUSTOR

 Pin =   112.0 PSIA
 Ac/At =  7.8253      Pinj/Pinf =  1.003464
 CASE =                

             REACTANT                    WT FRACTION      ENERGY      TEMP
                                          (SEE NOTE)     KJ/KG-MOL      K  
 OXIDANT     O2                           1.0000000      -146.832    293.150
 FUEL        PMMA                         1.0000000   -442140.000    293.150

 O/F=    0.93960  %FUEL= 51.556918  R,EQ.RATIO= 1.776752  PHI,EQ.RATIO= 2.040974

                 INJECTOR  COMB END  THROAT
 Pinj/P            1.0000   1.0070   1.7902
 P, BAR            7.7200   7.6666   4.3125
 T, K             2654.77  2653.18  2406.67
 RHO, KG/CU M    7.5073-1 7.4600-1 4.6395-1
 H, KJ/KG        -2279.12 -2282.70 -2845.55
 U, KJ/KG        -3307.46 -3310.40 -3775.06
 G, KJ/KG        -33785.9 -33774.2 -31411.1
 S, KJ/(KG)(K)    11.8680  11.8693  11.8693

 M, (1/n)          21.465   21.465   21.528
 (dLV/dLP)t      -1.00261 -1.00260 -1.00112
 (dLV/dLT)p        1.0573   1.0572   1.0267
 Cp, KJ/(KG)(K)    2.5177   2.5165   2.2541
 GAMMAs            1.2039   1.2040   1.2188
 SON VEL,M/SEC     1112.7   1112.4   1064.4
 MACH NUMBER        0.000    0.076    1.000

 PERFORMANCE PARAMETERS

 Ae/At                      7.8253  1.00000
 CSTAR, M/SEC               1557.9   1557.9
 CF                         0.0543   0.6832
 Ivac, M/SEC               12233.6   1937.7
 Isp, M/SEC                   84.6   1064.4


 MOLE FRACTIONS

 *CO              0.47073  0.47071  0.46733
 *CO2             0.08196  0.08199  0.08698
 *H               0.00776  0.00774  0.00363
 *H2              0.20323  0.20327  0.20981
 H2O              0.23384  0.23383  0.23141
 *O               0.00005  0.00005  0.00001
 *OH              0.00239  0.00238  0.00082
 *O2              0.00002  0.00002  0.00000

  * THERMODYNAMIC PROPERTIES FITTED TO 20000.K

    PRODUCTS WHICH WERE CONSIDERED BUT WHOSE MOLE FRACTIONS
    WERE LESS THAN 5.000000E-06 FOR ALL ASSIGNED CONDITIONS

 *C              *CH             CH2             CH3             CH2OH          
 CH3O            CH4             CH3OH           CH3OOH          COOH           
 *C2             C2H             C2H2,acetylene  C2H2,vinylidene CH2CO,ketene   
 O(CH)2O         HO(CO)2OH       C2H3,vinyl      CH3CO,acetyl    C2H4           
 C2H4O,ethylen-o CH3CHO,ethanal  CH3COOH         OHCH2COOH       C2H5           
 C2H6            C2H5OH          CH3OCH3         CH3O2CH3        C2O            
 *C3             C3H3,1-propynl  C3H3,2-propynl  C3H4,allene     C3H4,propyne   
 C3H4,cyclo-     C3H5,allyl      C3H6,propylene  C3H6,cyclo-     C3H6O,propylox 
 C3H6O,acetone   C3H6O,propanal  C3H7,n-propyl   C3H7,i-propyl   C3H8           
 C3H8O,1propanol C3H8O,2propanol C3O2            *C4             C4H2,butadiyne 
 C4H4,1,3-cyclo- C4H6,butadiene  C4H6,1butyne    C4H6,2butyne    C4H6,cyclo-    
 C4H8,1-butene   C4H8,cis2-buten C4H8,tr2-butene C4H8,isobutene  C4H8,cyclo-    
 (CH3COOH)2      C4H9,n-butyl    C4H9,i-butyl    C4H9,s-butyl    C4H9,t-butyl   
 C4H10,n-butane  C4H10,isobutane *C5             C5H6,1,3cyclo-  C5H8,cyclo-    
 C5H10,1-pentene C5H10,cyclo-    C5H11,pentyl    C5H11,t-pentyl  C5H12,n-pentane
 C5H12,i-pentane CH3C(CH3)2CH3   C6H2            C6H5,phenyl     C6H5O,phenoxy  
 C6H6            C6H5OH,phenol   C6H10,cyclo-    C6H12,1-hexene  C6H12,cyclo-   
 C6H13,n-hexyl   C6H14,n-hexane  C7H7,benzyl     C7H8            C7H8O,cresol-mx
 C7H14,1-heptene C7H15,n-heptyl  C7H16,n-heptane C7H16,2-methylh C8H8,styrene   
 C8H10,ethylbenz C8H16,1-octene  C8H17,n-octyl   C8H18,n-octane  C8H18,isooctane
 C9H19,n-nonyl   C10H8,naphthale C10H21,n-decyl  C12H9,o-bipheny C12H10,biphenyl
 HCO             HCCO            HO2             HCHO,formaldehy HCOOH          
 H2O2            (HCOOH)2        O3              C(gr)           H2O(cr)        
 H2O(L)         

 NOTE. WEIGHT FRACTION OF FUEL IN TOTAL FUELS AND OF OXIDANT IN TOTAL OXIDANTS






 WARNING!!  ASSIGNED pip =   0.00000 IS NOT PERMITTED
 TO BE LESS THAN  Pinj/Pc =  1.00696. POINT OMITTED (ROCKET)





              THEORETICAL ROCKET PERFORMANCE ASSUMING EQUILIBRIUM

            COMPOSITION DURING EXPANSION FROM FINITE AREA COMBUSTOR

 Pin =   112.0 PSIA
 Ac/At =  7.8253      Pinj/Pinf =  1.003464
 CASE =                

             REACTANT                    WT FRACTION      ENERGY      TEMP
                                          (SEE NOTE)     KJ/KG-MOL      K  
 OXIDANT     O2                           1.0000000      -146.832    293.150
 FUEL        PMMA                         1.0000000   -442140.000    293.150

 O/F=    0.93960  %FUEL= 51.556918  R,EQ.RATIO= 1.776752  PHI,EQ.RATIO= 2.040974

                 INJECTOR  COMB END  THROAT
 Pinj/P            1.0000   1.0070   1.7902
 P, BAR            7.7200   7.6666   4.3125
 T, K             2654.77  2653.18  2406.67
 RHO, KG/CU M    7.5073-1 7.4600-1 4.6395-1
 H, KJ/KG        -2279.12 -2282.70 -2845.55
 U, KJ/KG        -3307.46 -3310.40 -3775.06
 G, KJ/KG        -33785.9 -33774.2 -31411.1
 S, KJ/(KG)(K)    11.8680  11.8693  11.8693

 M, (1/n)          21.465   21.465   21.528
 (dLV/dLP)t      -1.00261 -1.00260 -1.00112
 (dLV/dLT)p        1.0573   1.0572   1.0267
 Cp, KJ/(KG)(K)    2.5177   2.5165   2.2541
 GAMMAs            1.2039   1.2040   1.2188
 SON VEL,M/SEC     1112.7   1112.4   1064.4
 MACH NUMBER        0.000    0.076    1.000

 PERFORMANCE PARAMETERS

 Ae/At                      7.8253  1.00000
 CSTAR, M/SEC               1557.9   1557.9
 CF                         0.0543   0.6832
 Ivac, M/SEC               12233.6   1937.7
 Isp, M/SEC                   84.6   1064.4


 MOLE FRACTIONS

 *CO              0.47073  0.47071  0.46733
 *CO2             0.08196  0.08199  0.08698
 *H               0.00776  0.00774  0.00363
 *H2              0.20323  0.20327  0.20981
 H2O              0.23384  0.23383  0.23141
 *O               0.00005  0.00005  0.00001
 *OH              0.00239  0.00238  0.00082
 *O2              0.00002  0.00002  0.00000

  * THERMODYNAMIC PROPERTIES FITTED TO 20000.K

    PRODUCTS WHICH WERE CONSIDERED BUT WHOSE MOLE FRACTIONS
    WERE LESS THAN 5.000000E-06 FOR ALL ASSIGNED CONDITIONS

 *C              *CH             CH2             CH3             CH2OH          
 CH3O            CH4             CH3OH           CH3OOH          COOH           
 *C2             C2H             C2H2,acetylene  C2H2,vinylidene CH2CO,ketene   
 O(CH)2O         HO(CO)2OH       C2H3,vinyl      CH3CO,acetyl    C2H4           
 C2H4O,ethylen-o CH3CHO,ethanal  CH3COOH         OHCH2COOH       C2H5           
 C2H6            C2H5OH          CH3OCH3         CH3O2CH3        C2O            
 *C3             C3H3,1-propynl  C3H3,2-propynl  C3H4,allene     C3H4,propyne   
 C3H4,cyclo-     C3H5,allyl      C3H6,propylene  C3H6,cyclo-     C3H6O,propylox 
 C3H6O,acetone   C3H6O,propanal  C3H7,n-propyl   C3H7,i-propyl   C3H8           
 C3H8O,1propanol C3H8O,2propanol C3O2            *C4             C4H2,butadiyne 
 C4H4,1,3-cyclo- C4H6,butadiene  C4H6,1butyne    C4H6,2butyne    C4H6,cyclo-    
 C4H8,1-butene   C4H8,cis2-buten C4H8,tr2-butene C4H8,isobutene  C4H8,cyclo-    
 (CH3COOH)2      C4H9,n-butyl    C4H9,i-butyl    C4H9,s-butyl    C4H9,t-butyl   
 C4H10,n-butane  C4H10,isobutane *C5             C5H6,1,3cyclo-  C5H8,cyclo-    
 C5H10,1-pentene C5H10,cyclo-    C5H11,pentyl    C5H11,t-pentyl  C5H12,n-pentane
 C5H12,i-pentane CH3C(CH3)2CH3   C6H2            C6H5,phenyl     C6H5O,phenoxy  
 C6H6            C6H5OH,phenol   C6H10,cyclo-    C6H12,1-hexene  C6H12,cyclo-   
 C6H13,n-hexyl   C6H14,n-hexane  C7H7,benzyl     C7H8            C7H8O,cresol-mx
 C7H14,1-heptene C7H15,n-heptyl  C7H16,n-heptane C7H16,2-methylh C8H8,styrene   
 C8H10,ethylbenz C8H16,1-octene  C8H17,n-octyl   C8H18,n-octane  C8H18,isooctane
 C9H19,n-nonyl   C10H8,naphthale C10H21,n-decyl  C12H9,o-bipheny C12H10,biphenyl
 HCO             HCCO            HO2             HCHO,formaldehy HCOOH          
 H2O2            (HCOOH)2        O3              C(gr)           H2O(cr)        
 H2O(L)         

 NOTE. WEIGHT FRACTION OF FUEL IN TOTAL FUELS AND OF OXIDANT IN TOTAL OXIDANTS






 WARNING!!  ASSIGNED pip =   0.00000 IS NOT PERMITTED
 TO BE LESS THAN  Pinj/Pc =  1.00696. POINT OMITTED (ROCKET)





              THEORETICAL ROCKET PERFORMANCE ASSUMING EQUILIBRIUM

            COMPOSITION DURING EXPANSION FROM FINITE AREA COMBUSTOR

 Pin =   112.0 PSIA
 Ac/At =  7.8253      Pinj/Pinf =  1.003464
 CASE =                

             REACTANT                    WT FRACTION      ENERGY      TEMP
                                          (SEE NOTE)     KJ/KG-MOL      K  
 OXIDANT     O2                           1.0000000      -146.832    293.150
 FUEL        PMMA                         1.0000000   -442140.000    293.150

 O/F=    0.93960  %FUEL= 51.556918  R,EQ.RATIO= 1.776752  PHI,EQ.RATIO= 2.040974

                 INJECTOR  COMB END  THROAT
 Pinj/P            1.0000   1.0070   1.7902
 P, BAR            7.7200   7.6666   4.3125
 T, K             2654.77  2653.18  2406.67
 RHO, KG/CU M    7.5073-1 7.4600-1 4.6395-1
 H, KJ/KG        -2279.12 -2282.70 -2845.55
 U, KJ/KG        -3307.46 -3310.40 -3775.06
 G, KJ/KG        -33785.9 -33774.2 -31411.1
 S, KJ/(KG)(K)    11.8680  11.8693  11.8693

 M, (1/n)          21.465   21.465   21.528
 (dLV/dLP)t      -1.00261 -1.00260 -1.00112
 (dLV/dLT)p        1.0573   1.0572   1.0267
 Cp, KJ/(KG)(K)    2.5177   2.5165   2.2541
 GAMMAs            1.2039   1.2040   1.2188
 SON VEL,M/SEC     1112.7   1112.4   1064.4
 MACH NUMBER        0.000    0.076    1.000

 PERFORMANCE PARAMETERS

 Ae/At                      7.8253  1.00000
 CSTAR, M/SEC               1557.9   1557.9
 CF                         0.0543   0.6832
 Ivac, M/SEC               12233.6   1937.7
 Isp, M/SEC                   84.6   1064.4


 MOLE FRACTIONS

 *CO              0.47073  0.47071  0.46733
 *CO2             0.08196  0.08199  0.08698
 *H               0.00776  0.00774  0.00363
 *H2              0.20323  0.20327  0.20981
 H2O              0.23384  0.23383  0.23141
 *O               0.00005  0.00005  0.00001
 *OH              0.00239  0.00238  0.00082
 *O2              0.00002  0.00002  0.00000

  * THERMODYNAMIC PROPERTIES FITTED TO 20000.K

    PRODUCTS WHICH WERE CONSIDERED BUT WHOSE MOLE FRACTIONS
    WERE LESS THAN 5.000000E-06 FOR ALL ASSIGNED CONDITIONS

 *C              *CH             CH2             CH3             CH2OH          
 CH3O            CH4             CH3OH           CH3OOH          COOH           
 *C2             C2H             C2H2,acetylene  C2H2,vinylidene CH2CO,ketene   
 O(CH)2O         HO(CO)2OH       C2H3,vinyl      CH3CO,acetyl    C2H4           
 C2H4O,ethylen-o CH3CHO,ethanal  CH3COOH         OHCH2COOH       C2H5           
 C2H6            C2H5OH          CH3OCH3         CH3O2CH3        C2O            
 *C3             C3H3,1-propynl  C3H3,2-propynl  C3H4,allene     C3H4,propyne   
 C3H4,cyclo-     C3H5,allyl      C3H6,propylene  C3H6,cyclo-     C3H6O,propylox 
 C3H6O,acetone   C3H6O,propanal  C3H7,n-propyl   C3H7,i-propyl   C3H8           
 C3H8O,1propanol C3H8O,2propanol C3O2            *C4             C4H2,butadiyne 
 C4H4,1,3-cyclo- C4H6,butadiene  C4H6,1butyne    C4H6,2butyne    C4H6,cyclo-    
 C4H8,1-butene   C4H8,cis2-buten C4H8,tr2-butene C4H8,isobutene  C4H8,cyclo-    
 (CH3COOH)2      C4H9,n-butyl    C4H9,i-butyl    C4H9,s-butyl    C4H9,t-butyl   
 C4H10,n-butane  C4H10,isobutane *C5             C5H6,1,3cyclo-  C5H8,cyclo-    
 C5H10,1-pentene C5H10,cyclo-    C5H11,pentyl    C5H11,t-pentyl  C5H12,n-pentane
 C5H12,i-pentane CH3C(CH3)2CH3   C6H2            C6H5,phenyl     C6H5O,phenoxy  
 C6H6            C6H5OH,phenol   C6H10,cyclo-    C6H12,1-hexene  C6H12,cyclo-   
 C6H13,n-hexyl   C6H14,n-hexane  C7H7,benzyl     C7H8            C7H8O,cresol-mx
 C7H14,1-heptene C7H15,n-heptyl  C7H16,n-heptane C7H16,2-methylh C8H8,styrene   
 C8H10,ethylbenz C8H16,1-octene  C8H17,n-octyl   C8H18,n-octane  C8H18,isooctane
 C9H19,n-nonyl   C10H8,naphthale C10H21,n-decyl  C12H9,o-bipheny C12H10,biphenyl
 HCO             HCCO            HO2             HCHO,formaldehy HCOOH          
 H2O2            (HCOOH)2        O3              C(gr)           H2O(cr)        
 H2O(L)         

 NOTE. WEIGHT FRACTION OF FUEL IN TOTAL FUELS AND OF OXIDANT IN TOTAL OXIDANTS






 WARNING!!  ASSIGNED pip =   0.00000 IS NOT PERMITTED
 TO BE LESS THAN  Pinj/Pc =  1.00696. POINT OMITTED (ROCKET)





              THEORETICAL ROCKET PERFORMANCE ASSUMING EQUILIBRIUM

            COMPOSITION DURING EXPANSION FROM FINITE AREA COMBUSTOR

 Pin =   112.0 PSIA
 Ac/At =  7.8253      Pinj/Pinf =  1.003464
 CASE =                

             REACTANT                    WT FRACTION      ENERGY      TEMP
                                          (SEE NOTE)     KJ/KG-MOL      K  
 OXIDANT     O2                           1.0000000      -146.832    293.150
 FUEL        PMMA                         1.0000000   -442140.000    293.150

 O/F=    0.93960  %FUEL= 51.556918  R,EQ.RATIO= 1.776752  PHI,EQ.RATIO= 2.040974

                 INJECTOR  COMB END  THROAT
 Pinj/P            1.0000   1.0070   1.7902
 P, BAR            7.7200   7.6666   4.3125
 T, K             2654.77  2653.18  2406.67
 RHO, KG/CU M    7.5073-1 7.4600-1 4.6395-1
 H, KJ/KG        -2279.12 -2282.70 -2845.55
 U, KJ/KG        -3307.46 -3310.40 -3775.06
 G, KJ/KG        -33785.9 -33774.2 -31411.1
 S, KJ/(KG)(K)    11.8680  11.8693  11.8693

 M, (1/n)          21.465   21.465   21.528
 (dLV/dLP)t      -1.00261 -1.00260 -1.00112
 (dLV/dLT)p        1.0573   1.0572   1.0267
 Cp, KJ/(KG)(K)    2.5177   2.5165   2.2541
 GAMMAs            1.2039   1.2040   1.2188
 SON VEL,M/SEC     1112.7   1112.4   1064.4
 MACH NUMBER        0.000    0.076    1.000

 PERFORMANCE PARAMETERS

 Ae/At                      7.8253  1.00000
 CSTAR, M/SEC               1557.9   1557.9
 CF                         0.0543   0.6832
 Ivac, M/SEC               12233.6   1937.7
 Isp, M/SEC                   84.6   1064.4


 MOLE FRACTIONS

 *CO              0.47073  0.47071  0.46733
 *CO2             0.08196  0.08199  0.08698
 *H               0.00776  0.00774  0.00363
 *H2              0.20323  0.20327  0.20981
 H2O              0.23384  0.23383  0.23141
 *O               0.00005  0.00005  0.00001
 *OH              0.00239  0.00238  0.00082
 *O2              0.00002  0.00002  0.00000

  * THERMODYNAMIC PROPERTIES FITTED TO 20000.K

    PRODUCTS WHICH WERE CONSIDERED BUT WHOSE MOLE FRACTIONS
    WERE LESS THAN 5.000000E-06 FOR ALL ASSIGNED CONDITIONS

 *C              *CH             CH2             CH3             CH2OH          
 CH3O            CH4             CH3OH           CH3OOH          COOH           
 *C2             C2H             C2H2,acetylene  C2H2,vinylidene CH2CO,ketene   
 O(CH)2O         HO(CO)2OH       C2H3,vinyl      CH3CO,acetyl    C2H4           
 C2H4O,ethylen-o CH3CHO,ethanal  CH3COOH         OHCH2COOH       C2H5           
 C2H6            C2H5OH          CH3OCH3         CH3O2CH3        C2O            
 *C3             C3H3,1-propynl  C3H3,2-propynl  C3H4,allene     C3H4,propyne   
 C3H4,cyclo-     C3H5,allyl      C3H6,propylene  C3H6,cyclo-     C3H6O,propylox 
 C3H6O,acetone   C3H6O,propanal  C3H7,n-propyl   C3H7,i-propyl   C3H8           
 C3H8O,1propanol C3H8O,2propanol C3O2            *C4             C4H2,butadiyne 
 C4H4,1,3-cyclo- C4H6,butadiene  C4H6,1butyne    C4H6,2butyne    C4H6,cyclo-    
 C4H8,1-butene   C4H8,cis2-buten C4H8,tr2-butene C4H8,isobutene  C4H8,cyclo-    
 (CH3COOH)2      C4H9,n-butyl    C4H9,i-butyl    C4H9,s-butyl    C4H9,t-butyl   
 C4H10,n-butane  C4H10,isobutane *C5             C5H6,1,3cyclo-  C5H8,cyclo-    
 C5H10,1-pentene C5H10,cyclo-    C5H11,pentyl    C5H11,t-pentyl  C5H12,n-pentane
 C5H12,i-pentane CH3C(CH3)2CH3   C6H2            C6H5,phenyl     C6H5O,phenoxy  
 C6H6            C6H5OH,phenol   C6H10,cyclo-    C6H12,1-hexene  C6H12,cyclo-   
 C6H13,n-hexyl   C6H14,n-hexane  C7H7,benzyl     C7H8            C7H8O,cresol-mx
 C7H14,1-heptene C7H15,n-heptyl  C7H16,n-heptane C7H16,2-methylh C8H8,styrene   
 C8H10,ethylbenz C8H16,1-octene  C8H17,n-octyl   C8H18,n-octane  C8H18,isooctane
 C9H19,n-nonyl   C10H8,naphthale C10H21,n-decyl  C12H9,o-bipheny C12H10,biphenyl
 HCO             HCCO            HO2             HCHO,formaldehy HCOOH          
 H2O2            (HCOOH)2        O3              C(gr)           H2O(cr)        
 H2O(L)         

 NOTE. WEIGHT FRACTION OF FUEL IN TOTAL FUELS AND OF OXIDANT IN TOTAL OXIDANTS






 WARNING!!  ASSIGNED pip =   0.00000 IS NOT PERMITTED
 TO BE LESS THAN  Pinj/Pc =  1.00696. POINT OMITTED (ROCKET)





              THEORETICAL ROCKET PERFORMANCE ASSUMING EQUILIBRIUM

            COMPOSITION DURING EXPANSION FROM FINITE AREA COMBUSTOR

 Pin =   112.0 PSIA
 Ac/At =  7.8253      Pinj/Pinf =  1.003464
 CASE =                

             REACTANT                    WT FRACTION      ENERGY      TEMP
                                          (SEE NOTE)     KJ/KG-MOL      K  
 OXIDANT     O2                           1.0000000      -146.832    293.150
 FUEL        PMMA                         1.0000000   -442140.000    293.150

 O/F=    0.93960  %FUEL= 51.556918  R,EQ.RATIO= 1.776752  PHI,EQ.RATIO= 2.040974

                 INJECTOR  COMB END  THROAT
 Pinj/P            1.0000   1.0070   1.7902
 P, BAR            7.7200   7.6666   4.3125
 T, K             2654.77  2653.18  2406.67
 RHO, KG/CU M    7.5073-1 7.4600-1 4.6395-1
 H, KJ/KG        -2279.12 -2282.70 -2845.55
 U, KJ/KG        -3307.46 -3310.40 -3775.06
 G, KJ/KG        -33785.9 -33774.2 -31411.1
 S, KJ/(KG)(K)    11.8680  11.8693  11.8693

 M, (1/n)          21.465   21.465   21.528
 (dLV/dLP)t      -1.00261 -1.00260 -1.00112
 (dLV/dLT)p        1.0573   1.0572   1.0267
 Cp, KJ/(KG)(K)    2.5177   2.5165   2.2541
 GAMMAs            1.2039   1.2040   1.2188
 SON VEL,M/SEC     1112.7   1112.4   1064.4
 MACH NUMBER        0.000    0.076    1.000

 PERFORMANCE PARAMETERS

 Ae/At                      7.8253  1.00000
 CSTAR, M/SEC               1557.9   1557.9
 CF                         0.0543   0.6832
 Ivac, M/SEC               12233.6   1937.7
 Isp, M/SEC                   84.6   1064.4


 MOLE FRACTIONS

 *CO              0.47073  0.47071  0.46733
 *CO2             0.08196  0.08199  0.08698
 *H               0.00776  0.00774  0.00363
 *H2              0.20323  0.20327  0.20981
 H2O              0.23384  0.23383  0.23141
 *O               0.00005  0.00005  0.00001
 *OH              0.00239  0.00238  0.00082
 *O2              0.00002  0.00002  0.00000

  * THERMODYNAMIC PROPERTIES FITTED TO 20000.K

    PRODUCTS WHICH WERE CONSIDERED BUT WHOSE MOLE FRACTIONS
    WERE LESS THAN 5.000000E-06 FOR ALL ASSIGNED CONDITIONS

 *C              *CH             CH2             CH3             CH2OH          
 CH3O            CH4             CH3OH           CH3OOH          COOH           
 *C2             C2H             C2H2,acetylene  C2H2,vinylidene CH2CO,ketene   
 O(CH)2O         HO(CO)2OH       C2H3,vinyl      CH3CO,acetyl    C2H4           
 C2H4O,ethylen-o CH3CHO,ethanal  CH3COOH         OHCH2COOH       C2H5           
 C2H6            C2H5OH          CH3OCH3         CH3O2CH3        C2O            
 *C3             C3H3,1-propynl  C3H3,2-propynl  C3H4,allene     C3H4,propyne   
 C3H4,cyclo-     C3H5,allyl      C3H6,propylene  C3H6,cyclo-     C3H6O,propylox 
 C3H6O,acetone   C3H6O,propanal  C3H7,n-propyl   C3H7,i-propyl   C3H8           
 C3H8O,1propanol C3H8O,2propanol C3O2            *C4             C4H2,butadiyne 
 C4H4,1,3-cyclo- C4H6,butadiene  C4H6,1butyne    C4H6,2butyne    C4H6,cyclo-    
 C4H8,1-butene   C4H8,cis2-buten C4H8,tr2-butene C4H8,isobutene  C4H8,cyclo-    
 (CH3COOH)2      C4H9,n-butyl    C4H9,i-butyl    C4H9,s-butyl    C4H9,t-butyl   
 C4H10,n-butane  C4H10,isobutane *C5             C5H6,1,3cyclo-  C5H8,cyclo-    
 C5H10,1-pentene C5H10,cyclo-    C5H11,pentyl    C5H11,t-pentyl  C5H12,n-pentane
 C5H12,i-pentane CH3C(CH3)2CH3   C6H2            C6H5,phenyl     C6H5O,phenoxy  
 C6H6            C6H5OH,phenol   C6H10,cyclo-    C6H12,1-hexene  C6H12,cyclo-   
 C6H13,n-hexyl   C6H14,n-hexane  C7H7,benzyl     C7H8            C7H8O,cresol-mx
 C7H14,1-heptene C7H15,n-heptyl  C7H16,n-heptane C7H16,2-methylh C8H8,styrene   
 C8H10,ethylbenz C8H16,1-octene  C8H17,n-octyl   C8H18,n-octane  C8H18,isooctane
 C9H19,n-nonyl   C10H8,naphthale C10H21,n-decyl  C12H9,o-bipheny C12H10,biphenyl
 HCO             HCCO            HO2             HCHO,formaldehy HCOOH          
 H2O2            (HCOOH)2        O3              C(gr)           H2O(cr)        
 H2O(L)         

 NOTE. WEIGHT FRACTION OF FUEL IN TOTAL FUELS AND OF OXIDANT IN TOTAL OXIDANTS






 WARNING!!  ASSIGNED pip =   0.00000 IS NOT PERMITTED
 TO BE LESS THAN  Pinj/Pc =  1.00696. POINT OMITTED (ROCKET)





              THEORETICAL ROCKET PERFORMANCE ASSUMING EQUILIBRIUM

            COMPOSITION DURING EXPANSION FROM FINITE AREA COMBUSTOR

 Pin =   112.0 PSIA
 Ac/At =  7.8253      Pinj/Pinf =  1.003464
 CASE =                

             REACTANT                    WT FRACTION      ENERGY      TEMP
                                          (SEE NOTE)     KJ/KG-MOL      K  
 OXIDANT     O2                           1.0000000      -146.832    293.150
 FUEL        PMMA                         1.0000000   -442140.000    293.150

 O/F=    0.93960  %FUEL= 51.556918  R,EQ.RATIO= 1.776752  PHI,EQ.RATIO= 2.040974

                 INJECTOR  COMB END  THROAT
 Pinj/P            1.0000   1.0070   1.7902
 P, BAR            7.7200   7.6666   4.3125
 T, K             2654.77  2653.18  2406.67
 RHO, KG/CU M    7.5073-1 7.4600-1 4.6395-1
 H, KJ/KG        -2279.12 -2282.70 -2845.55
 U, KJ/KG        -3307.46 -3310.40 -3775.06
 G, KJ/KG        -33785.9 -33774.2 -31411.1
 S, KJ/(KG)(K)    11.8680  11.8693  11.8693

 M, (1/n)          21.465   21.465   21.528
 (dLV/dLP)t      -1.00261 -1.00260 -1.00112
 (dLV/dLT)p        1.0573   1.0572   1.0267
 Cp, KJ/(KG)(K)    2.5177   2.5165   2.2541
 GAMMAs            1.2039   1.2040   1.2188
 SON VEL,M/SEC     1112.7   1112.4   1064.4
 MACH NUMBER        0.000    0.076    1.000

 PERFORMANCE PARAMETERS

 Ae/At                      7.8253  1.00000
 CSTAR, M/SEC               1557.9   1557.9
 CF                         0.0543   0.6832
 Ivac, M/SEC               12233.6   1937.7
 Isp, M/SEC                   84.6   1064.4


 MOLE FRACTIONS

 *CO              0.47073  0.47071  0.46733
 *CO2             0.08196  0.08199  0.08698
 *H               0.00776  0.00774  0.00363
 *H2              0.20323  0.20327  0.20981
 H2O              0.23384  0.23383  0.23141
 *O               0.00005  0.00005  0.00001
 *OH              0.00239  0.00238  0.00082
 *O2              0.00002  0.00002  0.00000

  * THERMODYNAMIC PROPERTIES FITTED TO 20000.K

    PRODUCTS WHICH WERE CONSIDERED BUT WHOSE MOLE FRACTIONS
    WERE LESS THAN 5.000000E-06 FOR ALL ASSIGNED CONDITIONS

 *C              *CH             CH2             CH3             CH2OH          
 CH3O            CH4             CH3OH           CH3OOH          COOH           
 *C2             C2H             C2H2,acetylene  C2H2,vinylidene CH2CO,ketene   
 O(CH)2O         HO(CO)2OH       C2H3,vinyl      CH3CO,acetyl    C2H4           
 C2H4O,ethylen-o CH3CHO,ethanal  CH3COOH         OHCH2COOH       C2H5           
 C2H6            C2H5OH          CH3OCH3         CH3O2CH3        C2O            
 *C3             C3H3,1-propynl  C3H3,2-propynl  C3H4,allene     C3H4,propyne   
 C3H4,cyclo-     C3H5,allyl      C3H6,propylene  C3H6,cyclo-     C3H6O,propylox 
 C3H6O,acetone   C3H6O,propanal  C3H7,n-propyl   C3H7,i-propyl   C3H8           
 C3H8O,1propanol C3H8O,2propanol C3O2            *C4             C4H2,butadiyne 
 C4H4,1,3-cyclo- C4H6,butadiene  C4H6,1butyne    C4H6,2butyne    C4H6,cyclo-    
 C4H8,1-butene   C4H8,cis2-buten C4H8,tr2-butene C4H8,isobutene  C4H8,cyclo-    
 (CH3COOH)2      C4H9,n-butyl    C4H9,i-butyl    C4H9,s-butyl    C4H9,t-butyl   
 C4H10,n-butane  C4H10,isobutane *C5             C5H6,1,3cyclo-  C5H8,cyclo-    
 C5H10,1-pentene C5H10,cyclo-    C5H11,pentyl    C5H11,t-pentyl  C5H12,n-pentane
 C5H12,i-pentane CH3C(CH3)2CH3   C6H2            C6H5,phenyl     C6H5O,phenoxy  
 C6H6            C6H5OH,phenol   C6H10,cyclo-    C6H12,1-hexene  C6H12,cyclo-   
 C6H13,n-hexyl   C6H14,n-hexane  C7H7,benzyl     C7H8            C7H8O,cresol-mx
 C7H14,1-heptene C7H15,n-heptyl  C7H16,n-heptane C7H16,2-methylh C8H8,styrene   
 C8H10,ethylbenz C8H16,1-octene  C8H17,n-octyl   C8H18,n-octane  C8H18,isooctane
 C9H19,n-nonyl   C10H8,naphthale C10H21,n-decyl  C12H9,o-bipheny C12H10,biphenyl
 HCO             HCCO            HO2             HCHO,formaldehy HCOOH          
 H2O2            (HCOOH)2        O3              C(gr)           H2O(cr)        
 H2O(L)         

 NOTE. WEIGHT FRACTION OF FUEL IN TOTAL FUELS AND OF OXIDANT IN TOTAL OXIDANTS






 WARNING!!  ASSIGNED pip =   0.00000 IS NOT PERMITTED
 TO BE LESS THAN  Pinj/Pc =  1.00696. POINT OMITTED (ROCKET)





              THEORETICAL ROCKET PERFORMANCE ASSUMING EQUILIBRIUM

            COMPOSITION DURING EXPANSION FROM FINITE AREA COMBUSTOR

 Pin =   112.0 PSIA
 Ac/At =  7.8253      Pinj/Pinf =  1.003464
 CASE =                

             REACTANT                    WT FRACTION      ENERGY      TEMP
                                          (SEE NOTE)     KJ/KG-MOL      K  
 OXIDANT     O2                           1.0000000      -146.832    293.150
 FUEL        PMMA                         1.0000000   -442140.000    293.150

 O/F=    0.93960  %FUEL= 51.556918  R,EQ.RATIO= 1.776752  PHI,EQ.RATIO= 2.040974

                 INJECTOR  COMB END  THROAT
 Pinj/P            1.0000   1.0070   1.7902
 P, BAR            7.7200   7.6666   4.3125
 T, K             2654.77  2653.18  2406.67
 RHO, KG/CU M    7.5073-1 7.4600-1 4.6395-1
 H, KJ/KG        -2279.12 -2282.70 -2845.55
 U, KJ/KG        -3307.46 -3310.40 -3775.06
 G, KJ/KG        -33785.9 -33774.2 -31411.1
 S, KJ/(KG)(K)    11.8680  11.8693  11.8693

 M, (1/n)          21.465   21.465   21.528
 (dLV/dLP)t      -1.00261 -1.00260 -1.00112
 (dLV/dLT)p        1.0573   1.0572   1.0267
 Cp, KJ/(KG)(K)    2.5177   2.5165   2.2541
 GAMMAs            1.2039   1.2040   1.2188
 SON VEL,M/SEC     1112.7   1112.4   1064.4
 MACH NUMBER        0.000    0.076    1.000

 PERFORMANCE PARAMETERS

 Ae/At                      7.8253  1.00000
 CSTAR, M/SEC               1557.9   1557.9
 CF                         0.0543   0.6832
 Ivac, M/SEC               12233.6   1937.7
 Isp, M/SEC                   84.6   1064.4


 MOLE FRACTIONS

 *CO              0.47073  0.47071  0.46733
 *CO2             0.08196  0.08199  0.08698
 *H               0.00776  0.00774  0.00363
 *H2              0.20323  0.20327  0.20981
 H2O              0.23384  0.23383  0.23141
 *O               0.00005  0.00005  0.00001
 *OH              0.00239  0.00238  0.00082
 *O2              0.00002  0.00002  0.00000

  * THERMODYNAMIC PROPERTIES FITTED TO 20000.K

    PRODUCTS WHICH WERE CONSIDERED BUT WHOSE MOLE FRACTIONS
    WERE LESS THAN 5.000000E-06 FOR ALL ASSIGNED CONDITIONS

 *C              *CH             CH2             CH3             CH2OH          
 CH3O            CH4             CH3OH           CH3OOH          COOH           
 *C2             C2H             C2H2,acetylene  C2H2,vinylidene CH2CO,ketene   
 O(CH)2O         HO(CO)2OH       C2H3,vinyl      CH3CO,acetyl    C2H4           
 C2H4O,ethylen-o CH3CHO,ethanal  CH3COOH         OHCH2COOH       C2H5           
 C2H6            C2H5OH          CH3OCH3         CH3O2CH3        C2O            
 *C3             C3H3,1-propynl  C3H3,2-propynl  C3H4,allene     C3H4,propyne   
 C3H4,cyclo-     C3H5,allyl      C3H6,propylene  C3H6,cyclo-     C3H6O,propylox 
 C3H6O,acetone   C3H6O,propanal  C3H7,n-propyl   C3H7,i-propyl   C3H8           
 C3H8O,1propanol C3H8O,2propanol C3O2            *C4             C4H2,butadiyne 
 C4H4,1,3-cyclo- C4H6,butadiene  C4H6,1butyne    C4H6,2butyne    C4H6,cyclo-    
 C4H8,1-butene   C4H8,cis2-buten C4H8,tr2-butene C4H8,isobutene  C4H8,cyclo-    
 (CH3COOH)2      C4H9,n-butyl    C4H9,i-butyl    C4H9,s-butyl    C4H9,t-butyl   
 C4H10,n-butane  C4H10,isobutane *C5             C5H6,1,3cyclo-  C5H8,cyclo-    
 C5H10,1-pentene C5H10,cyclo-    C5H11,pentyl    C5H11,t-pentyl  C5H12,n-pentane
 C5H12,i-pentane CH3C(CH3)2CH3   C6H2            C6H5,phenyl     C6H5O,phenoxy  
 C6H6            C6H5OH,phenol   C6H10,cyclo-    C6H12,1-hexene  C6H12,cyclo-   
 C6H13,n-hexyl   C6H14,n-hexane  C7H7,benzyl     C7H8            C7H8O,cresol-mx
 C7H14,1-heptene C7H15,n-heptyl  C7H16,n-heptane C7H16,2-methylh C8H8,styrene   
 C8H10,ethylbenz C8H16,1-octene  C8H17,n-octyl   C8H18,n-octane  C8H18,isooctane
 C9H19,n-nonyl   C10H8,naphthale C10H21,n-decyl  C12H9,o-bipheny C12H10,biphenyl
 HCO             HCCO            HO2             HCHO,formaldehy HCOOH          
 H2O2            (HCOOH)2        O3              C(gr)           H2O(cr)        
 H2O(L)         

 NOTE. WEIGHT FRACTION OF FUEL IN TOTAL FUELS AND OF OXIDANT IN TOTAL OXIDANTS





   4   11     744.531     -48.167      -0.810     -11.379
 ADD  C(gr)          
   4    2     753.401     -47.633      -1.169     -11.391





              THEORETICAL ROCKET PERFORMANCE ASSUMING EQUILIBRIUM

            COMPOSITION DURING EXPANSION FROM FINITE AREA COMBUSTOR

 Pin =   112.0 PSIA
 Ac/At =  7.8253      Pinj/Pinf =  1.003464
 CASE =                

             REACTANT                    WT FRACTION      ENERGY      TEMP
                                          (SEE NOTE)     KJ/KG-MOL      K  
 OXIDANT     O2                           1.0000000      -146.832    293.150
 FUEL        PMMA                         1.0000000   -442140.000    293.150

 O/F=    0.93960  %FUEL= 51.556918  R,EQ.RATIO= 1.776752  PHI,EQ.RATIO= 2.040974

                 INJECTOR  COMB END  THROAT     EXIT
 Pinj/P            1.0000   1.0070   1.7902  1112.68
 P, BAR            7.7200   7.6666   4.3125  0.00694
 T, K             2654.77  2653.18  2406.67   753.40
 RHO, KG/CU M    7.5073-1 7.4600-1 4.6395-1 2.4186-3
 H, KJ/KG        -2279.12 -2282.70 -2845.55 -6293.31
 U, KJ/KG        -3307.46 -3310.40 -3775.06 -6580.18
 G, KJ/KG        -33785.9 -33774.2 -31411.1 -15235.7
 S, KJ/(KG)(K)    11.8680  11.8693  11.8693  11.8693

 M, (1/n)          21.465   21.465   21.528   21.837
 MW, MOL WT        21.465   21.465   21.528   21.707
 (dLV/dLP)t      -1.00261 -1.00260 -1.00112 -1.08303
 (dLV/dLT)p        1.0573   1.0572   1.0267   3.0568
 Cp, KJ/(KG)(K)    2.5177   2.5165   2.2541  21.7069
 GAMMAs            1.2039   1.2040   1.2188   1.0880
 SON VEL,M/SEC     1112.7   1112.4   1064.4    558.7
 MACH NUMBER        0.000    0.076    1.000    5.072

 PERFORMANCE PARAMETERS

 Ae/At                      7.8253  1.00000   72.057
 CSTAR, M/SEC               1557.9   1557.9   1557.9
 CF                         0.0543   0.6832   1.8187
 Ivac, M/SEC               12233.6   1937.7   2934.7
 Isp, M/SEC                   84.6   1064.4   2833.4


 MOLE FRACTIONS

 CH4              0.00000  0.00000  0.00000  0.00303
 *CO              0.47073  0.47071  0.46733  0.28044
 *CO2             0.08196  0.08199  0.08698  0.26952
 *H               0.00776  0.00774  0.00363  0.00000
 *H2              0.20323  0.20327  0.20981  0.37973
 H2O              0.23384  0.23383  0.23141  0.06134
 *O               0.00005  0.00005  0.00001  0.00000
 *OH              0.00239  0.00238  0.00082  0.00000
 *O2              0.00002  0.00002  0.00000  0.00000
 C(gr)            0.00000  0.00000  0.00000  0.00593

  * THERMODYNAMIC PROPERTIES FITTED TO 20000.K

    PRODUCTS WHICH WERE CONSIDERED BUT WHOSE MOLE FRACTIONS
    WERE LESS THAN 5.000000E-06 FOR ALL ASSIGNED CONDITIONS

 *C              *CH             CH2             CH3             CH2OH          
 CH3O            CH3OH           CH3OOH          COOH            *C2            
 C2H             C2H2,acetylene  C2H2,vinylidene CH2CO,ketene    O(CH)2O        
 HO(CO)2OH       C2H3,vinyl      CH3CO,acetyl    C2H4            C2H4O,ethylen-o
 CH3CHO,ethanal  CH3COOH         OHCH2COOH       C2H5            C2H6           
 C2H5OH          CH3OCH3         CH3O2CH3        C2O             *C3            
 C3H3,1-propynl  C3H3,2-propynl  C3H4,allene     C3H4,propyne    C3H4,cyclo-    
 C3H5,allyl      C3H6,propylene  C3H6,cyclo-     C3H6O,propylox  C3H6O,acetone  
 C3H6O,propanal  C3H7,n-propyl   C3H7,i-propyl   C3H8            C3H8O,1propanol
 C3H8O,2propanol C3O2            *C4             C4H2,butadiyne  C4H4,1,3-cyclo-
 C4H6,butadiene  C4H6,1butyne    C4H6,2butyne    C4H6,cyclo-     C4H8,1-butene  
 C4H8,cis2-buten C4H8,tr2-butene C4H8,isobutene  C4H8,cyclo-     (CH3COOH)2     
 C4H9,n-butyl    C4H9,i-butyl    C4H9,s-butyl    C4H9,t-butyl    C4H10,n-butane 
 C4H10,isobutane *C5             C5H6,1,3cyclo-  C5H8,cyclo-     C5H10,1-pentene
 C5H10,cyclo-    C5H11,pentyl    C5H11,t-pentyl  C5H12,n-pentane C5H12,i-pentane
 CH3C(CH3)2CH3   C6H2            C6H5,phenyl     C6H5O,phenoxy   C6H6           
 C6H5OH,phenol   C6H10,cyclo-    C6H12,1-hexene  C6H12,cyclo-    C6H13,n-hexyl  
 C6H14,n-hexane  C7H7,benzyl     C7H8            C7H8O,cresol-mx C7H14,1-heptene
 C7H15,n-heptyl  C7H16,n-heptane C7H16,2-methylh C8H8,styrene    C8H10,ethylbenz
 C8H16,1-octene  C8H17,n-octyl   C8H18,n-octane  C8H18,isooctane C9H19,n-nonyl  
 C10H8,naphthale C10H21,n-decyl  C12H9,o-bipheny C12H10,biphenyl HCO            
 HCCO            HO2             HCHO,formaldehy HCOOH           H2O2           
 (HCOOH)2        O3              H2O(cr)         H2O(L)         

 NOTE. WEIGHT FRACTION OF FUEL IN TOTAL FUELS AND OF OXIDANT IN TOTAL OXIDANTS



