
 *******************************************************************************

         NASA-GLENN CHEMICAL EQUILIBRIUM PROGRAM CEA2, MAY 21, 2004
                   BY  BONNIE MCBRIDE AND SANFORD GORDON
      REFS: NASA RP-1311, PART I, 1994 AND NASA RP-1311, PART II, 1996

 *******************************************************************************



 prob rocket fac p,bar=4.72,ac/at=7.67489618102,
 o/f=0.744965894605, pi/pe=1, eq
 react
 	oxid=O2  wt=0.980787154496	t,k=384.0
 	oxid=H2O wt=0.0115277073021	t,k=384.0
 	oxid=CO2 wt=0.00768513820141	t,k=384.0
 	fuel=PMMA  wt=100 t,k=293.15
 	h,kj/mol=-442.14  C 5 H 8 O 2
 end

 OPTIONS: TP=F  HP=F  SP=F  TV=F  UV=F  SV=F  DETN=F  SHOCK=F  REFL=F  INCD=F
 RKT=T  FROZ=F  EQL=T  IONS=F  SIUNIT=T  DEBUGF=F  SHKDBG=F  DETDBG=T  TRNSPT=F

 TRACE= 0.00E+00  S/R= 0.000000E+00  H/R= 0.000000E+00  U/R= 0.000000E+00

 Pc,BAR =     4.720000

 Pc/P =     1.0000

 SUBSONIC AREA RATIOS =

 SUPERSONIC AREA RATIOS =

 NFZ=  1  Mdot/Ac= 0.000000E+00  Ac/At= 7.674896E+00

    REACTANT          WT.FRAC   (ENERGY/R),K   TEMP,K  DENSITY
        EXPLODED FORMULA
 O: O2               0.980787   0.306143E+03   384.00  0.0000
          O  2.00000
 O: H2O              0.011528  -0.287355E+05   384.00  0.0000
          H  2.00000  O  1.00000
 O: CO2              0.007685  -0.469255E+05   384.00  0.0000
          C  1.00000  O  2.00000
 F: PMMA             1.000000  -0.531769E+05   293.15  0.0000
          C  5.00000  H  8.00000  O  2.00000

  SPECIES BEING CONSIDERED IN THIS SYSTEM
 (CONDENSED PHASE MAY HAVE NAME LISTED SEVERAL TIMES)
  LAST thermo.inp UPDATE:    9/09/04

  g 7/97  *C               tpis79  *CH              g 4/02  CH2            
  g 4/02  CH3              g11/00  CH2OH            g 7/00  CH3O           
  g 8/99  CH4              g 7/00  CH3OH            srd 01  CH3OOH         
  tpis79  *CO              g 9/99  *CO2             tpis91  COOH           
  tpis91  *C2              g 6/01  C2H              g 1/91  C2H2,acetylene 
  g 5/01  C2H2,vinylidene  g 4/02  CH2CO,ketene     g 3/02  O(CH)2O        
  srd 01  HO(CO)2OH        g 7/01  C2H3,vinyl       g 6/96  CH3CO,acetyl   
  g 1/00  C2H4             g 8/88  C2H4O,ethylen-o  g 8/88  CH3CHO,ethanal 
  g 6/00  CH3COOH          srd 01  OHCH2COOH        g 7/00  C2H5           
  g 7/00  C2H6             g 8/88  C2H5OH           g 7/00  CH3OCH3        
  srd 01  CH3O2CH3         g 8/00  C2O              tpis79  *C3            
  n 4/98  C3H3,1-propynl   n 4/98  C3H3,2-propynl   g 2/00  C3H4,allene    
  g 1/00  C3H4,propyne     g 5/90  C3H4,cyclo-      g 3/01  C3H5,allyl     
  g 2/00  C3H6,propylene   g 1/00  C3H6,cyclo-      g 6/01  C3H6O,propylox 
  g 6/97  C3H6O,acetone    g 1/02  C3H6O,propanal   g 7/01  C3H7,n-propyl  
  g 9/85  C3H7,i-propyl    g 2/00  C3H8             g 2/00  C3H8O,1propanol
  g 2/00  C3H8O,2propanol  g 7/88  C3O2             g tpis  *C4            
  g 7/01  C4H2,butadiyne   g 8/00  C4H4,1,3-cyclo-  n10/92  C4H6,butadiene 
  n10/93  C4H6,1butyne     n10/93  C4H6,2butyne     g 8/00  C4H6,cyclo-    
  n 4/88  C4H8,1-butene    n 4/88  C4H8,cis2-buten  n 4/88  C4H8,tr2-butene
  n 4/88  C4H8,isobutene   g 8/00  C4H8,cyclo-      g10/00  (CH3COOH)2     
  n10/84  C4H9,n-butyl     n10/84  C4H9,i-butyl     g 1/93  C4H9,s-butyl   
  g 1/93  C4H9,t-butyl     g12/00  C4H10,n-butane   g 8/00  C4H10,isobutane
  g 8/00  *C5              g 5/90  C5H6,1,3cyclo-   g 1/93  C5H8,cyclo-    
  n 4/87  C5H10,1-pentene  g 2/01  C5H10,cyclo-     n10/84  C5H11,pentyl   
  g 1/93  C5H11,t-pentyl   n10/85  C5H12,n-pentane  n10/85  C5H12,i-pentane
  n10/85  CH3C(CH3)2CH3    g 2/93  C6H2             g11/00  C6H5,phenyl    
  g 8/00  C6H5O,phenoxy    g 8/00  C6H6             g 8/00  C6H5OH,phenol  
  g 1/93  C6H10,cyclo-     n 4/87  C6H12,1-hexene   g 6/90  C6H12,cyclo-   
  n10/83  C6H13,n-hexyl    g 6/01  C6H14,n-hexane   g 7/01  C7H7,benzyl    
  g 1/93  C7H8             g12/00  C7H8O,cresol-mx  n 4/87  C7H14,1-heptene
  n10/83  C7H15,n-heptyl   n10/85  C7H16,n-heptane  n10/85  C7H16,2-methylh
  n 4/89  C8H8,styrene     n10/86  C8H10,ethylbenz  n 4/87  C8H16,1-octene 
  n10/83  C8H17,n-octyl    n 4/85  C8H18,n-octane   n 4/85  C8H18,isooctane
  n10/83  C9H19,n-nonyl    g 3/01  C10H8,naphthale  n10/83  C10H21,n-decyl 
  g 8/00  C12H9,o-bipheny  g 8/00  C12H10,biphenyl  g 6/97  *H             
  g 1/01  HCO              g 6/01  HCCO             g 4/02  HO2            
  tpis78  *H2              g 5/01  HCHO,formaldehy  g 6/01  HCOOH          
  g 8/89  H2O              g 6/99  H2O2             g 6/01  (HCOOH)2       
  g 5/97  *O               g 4/02  *OH              tpis89  *O2            
  g 8/01  O3               n 4/83  C(gr)            n 4/83  C(gr)          
  n 4/83  C(gr)            g11/99  H2O(cr)          g 8/01  H2O(L)         
  g 8/01  H2O(L)         

 O/F =   0.744966

                       EFFECTIVE FUEL     EFFECTIVE OXIDANT        MIXTURE
 ENTHALPY                  h(2)/R              h(1)/R               h0/R
 (KG-MOL)(K)/KG       -0.53115398E+03     -0.17198233E+02     -0.31173450E+03

 KG-FORM.WT./KG             bi(2)               bi(1)               b0i
  *O                   0.19976863E-01      0.62290630E-01      0.38041579E-01
  *H                   0.79907451E-01      0.12797700E-02      0.46339494E-01
  *C                   0.49942157E-01      0.17462453E-03      0.28695258E-01

 POINT ITN      T            O           H           C 
   1   21    1930.921     -23.887      -9.485      -9.715
   2    1    1930.896     -23.887      -9.501      -9.748
 Pinf/Pt = 1.811377
   3    4    1703.189     -25.840      -9.592      -8.908
 Pinf/Pt = 1.814630
   3    2    1702.539     -25.846      -9.593      -8.905
   4    2    1928.830     -23.903      -9.502      -9.741
   4    2    1929.477     -23.898      -9.501      -9.743
   4    1    1929.388     -23.899      -9.501      -9.743
   4    1    1929.385     -23.899      -9.501      -9.743
   2    1    1930.919     -23.887      -9.486      -9.719
 Pinf/Pt = 1.811400
   3    4    1703.188     -25.840      -9.578      -8.879
 Pinf/Pt = 1.814634
   3    2    1702.542     -25.846      -9.578      -8.876
   4    2    1928.852     -23.903      -9.487      -9.712
   4    2    1929.500     -23.898      -9.487      -9.714
   4    1    1929.411     -23.898      -9.487      -9.714
   4    1    1929.408     -23.898      -9.487      -9.714
 END OF CHAMBER ITERATIONS

 WARNING!!  ASSIGNED pip =   1.00000 IS NOT PERMITTED
 TO BE LESS THAN  Pinj/Pc =  1.00748. POINT OMITTED (ROCKET)





              THEORETICAL ROCKET PERFORMANCE ASSUMING EQUILIBRIUM

            COMPOSITION DURING EXPANSION FROM FINITE AREA COMBUSTOR

 Pin =    68.5 PSIA
 Ac/At =  7.6749      Pinj/Pinf =  1.003719
 CASE =                

             REACTANT                    WT FRACTION      ENERGY      TEMP
                                          (SEE NOTE)     KJ/KG-MOL      K  
 OXIDANT     O2                           0.9807872      2545.428    384.000
 OXIDANT     H2O                          0.0115277   -238921.312    384.000
 OXIDANT     CO2                          0.0076851   -390162.812    384.000
 FUEL        PMMA                         1.0000000   -442140.000    293.150

 O/F=    0.74497  %FUEL= 57.307710  R,EQ.RATIO= 2.117690  PHI,EQ.RATIO= 2.624648

                 INJECTOR  COMB END  THROAT
 Pinj/P            1.0000   1.0075   1.8214
 P, BAR            4.7200   4.6850   2.5914
 T, K             1930.92  1929.41  1702.54
 RHO, KG/CU M    5.6677-1 5.6301-1 3.5296-1
 H, KJ/KG        -2591.92 -2595.03 -3058.25
 U, KJ/KG        -3424.71 -3427.16 -3792.46
 G, KJ/KG        -26120.7 -26108.4 -23806.9
 S, KJ/(KG)(K)    12.1852  12.1868  12.1868

 M, (1/n)          19.278   19.278   19.280
 (dLV/dLP)t      -1.00007 -1.00007 -1.00002
 (dLV/dLT)p        1.0019   1.0019   1.0005
 Cp, KJ/(KG)(K)    2.0635   2.0633   2.0284
 GAMMAs            1.2654   1.2654   1.2703
 SON VEL,M/SEC     1026.6   1026.2    965.7
 MACH NUMBER        0.000    0.077    1.000

 PERFORMANCE PARAMETERS

 Ae/At                      7.6749   1.0000
 CSTAR, M/SEC               1379.6   1379.6
 CF                         0.0572   0.7000
 Ivac, M/SEC               10627.6   1726.0
 Isp, M/SEC                   78.9    965.7


 MOLE FRACTIONS

 *CO              0.50451  0.50447  0.49732
 *CO2             0.04869  0.04873  0.05593
 *H               0.00026  0.00026  0.00005
 *H2              0.31505  0.31510  0.32242
 H2O              0.13148  0.13144  0.12427
 *OH              0.00001  0.00001  0.00000

  * THERMODYNAMIC PROPERTIES FITTED TO 20000.K

    PRODUCTS WHICH WERE CONSIDERED BUT WHOSE MOLE FRACTIONS
    WERE LESS THAN 5.000000E-06 FOR ALL ASSIGNED CONDITIONS

 *C              *CH             CH2             CH3             CH2OH          
 CH3O            CH4             CH3OH           CH3OOH          COOH           
 *C2             C2H             C2H2,acetylene  C2H2,vinylidene CH2CO,ketene   
 O(CH)2O         HO(CO)2OH       C2H3,vinyl      CH3CO,acetyl    C2H4           
 C2H4O,ethylen-o CH3CHO,ethanal  CH3COOH         OHCH2COOH       C2H5           
 C2H6            C2H5OH          CH3OCH3         CH3O2CH3        C2O            
 *C3             C3H3,1-propynl  C3H3,2-propynl  C3H4,allene     C3H4,propyne   
 C3H4,cyclo-     C3H5,allyl      C3H6,propylene  C3H6,cyclo-     C3H6O,propylox 
 C3H6O,acetone   C3H6O,propanal  C3H7,n-propyl   C3H7,i-propyl   C3H8           
 C3H8O,1propanol C3H8O,2propanol C3O2            *C4             C4H2,butadiyne 
 C4H4,1,3-cyclo- C4H6,butadiene  C4H6,1butyne    C4H6,2butyne    C4H6,cyclo-    
 C4H8,1-butene   C4H8,cis2-buten C4H8,tr2-butene C4H8,isobutene  C4H8,cyclo-    
 (CH3COOH)2      C4H9,n-butyl    C4H9,i-butyl    C4H9,s-butyl    C4H9,t-butyl   
 C4H10,n-butane  C4H10,isobutane *C5             C5H6,1,3cyclo-  C5H8,cyclo-    
 C5H10,1-pentene C5H10,cyclo-    C5H11,pentyl    C5H11,t-pentyl  C5H12,n-pentane
 C5H12,i-pentane CH3C(CH3)2CH3   C6H2            C6H5,phenyl     C6H5O,phenoxy  
 C6H6            C6H5OH,phenol   C6H10,cyclo-    C6H12,1-hexene  C6H12,cyclo-   
 C6H13,n-hexyl   C6H14,n-hexane  C7H7,benzyl     C7H8            C7H8O,cresol-mx
 C7H14,1-heptene C7H15,n-heptyl  C7H16,n-heptane C7H16,2-methylh C8H8,styrene   
 C8H10,ethylbenz C8H16,1-octene  C8H17,n-octyl   C8H18,n-octane  C8H18,isooctane
 C9H19,n-nonyl   C10H8,naphthale C10H21,n-decyl  C12H9,o-bipheny C12H10,biphenyl
 HCO             HCCO            HO2             HCHO,formaldehy HCOOH          
 H2O2            (HCOOH)2        *O              *O2             O3             
 C(gr)           H2O(cr)         H2O(L)         

 NOTE. WEIGHT FRACTION OF FUEL IN TOTAL FUELS AND OF OXIDANT IN TOTAL OXIDANTS






 WARNING!!  ASSIGNED pip =   0.00000 IS NOT PERMITTED
 TO BE LESS THAN  Pinj/Pc =  1.00748. POINT OMITTED (ROCKET)





              THEORETICAL ROCKET PERFORMANCE ASSUMING EQUILIBRIUM

            COMPOSITION DURING EXPANSION FROM FINITE AREA COMBUSTOR

 Pin =    68.5 PSIA
 Ac/At =  7.6749      Pinj/Pinf =  1.003719
 CASE =                

             REACTANT                    WT FRACTION      ENERGY      TEMP
                                          (SEE NOTE)     KJ/KG-MOL      K  
 OXIDANT     O2                           0.9807872      2545.428    384.000
 OXIDANT     H2O                          0.0115277   -238921.312    384.000
 OXIDANT     CO2                          0.0076851   -390162.812    384.000
 FUEL        PMMA                         1.0000000   -442140.000    293.150

 O/F=    0.74497  %FUEL= 57.307710  R,EQ.RATIO= 2.117690  PHI,EQ.RATIO= 2.624648

                 INJECTOR  COMB END  THROAT
 Pinj/P            1.0000   1.0075   1.8214
 P, BAR            4.7200   4.6850   2.5914
 T, K             1930.92  1929.41  1702.54
 RHO, KG/CU M    5.6677-1 5.6301-1 3.5296-1
 H, KJ/KG        -2591.92 -2595.03 -3058.25
 U, KJ/KG        -3424.71 -3427.16 -3792.46
 G, KJ/KG        -26120.7 -26108.4 -23806.9
 S, KJ/(KG)(K)    12.1852  12.1868  12.1868

 M, (1/n)          19.278   19.278   19.280
 (dLV/dLP)t      -1.00007 -1.00007 -1.00002
 (dLV/dLT)p        1.0019   1.0019   1.0005
 Cp, KJ/(KG)(K)    2.0635   2.0633   2.0284
 GAMMAs            1.2654   1.2654   1.2703
 SON VEL,M/SEC     1026.6   1026.2    965.7
 MACH NUMBER        0.000    0.077    1.000

 PERFORMANCE PARAMETERS

 Ae/At                      7.6749   1.0000
 CSTAR, M/SEC               1379.6   1379.6
 CF                         0.0572   0.7000
 Ivac, M/SEC               10627.6   1726.0
 Isp, M/SEC                   78.9    965.7


 MOLE FRACTIONS

 *CO              0.50451  0.50447  0.49732
 *CO2             0.04869  0.04873  0.05593
 *H               0.00026  0.00026  0.00005
 *H2              0.31505  0.31510  0.32242
 H2O              0.13148  0.13144  0.12427
 *OH              0.00001  0.00001  0.00000

  * THERMODYNAMIC PROPERTIES FITTED TO 20000.K

    PRODUCTS WHICH WERE CONSIDERED BUT WHOSE MOLE FRACTIONS
    WERE LESS THAN 5.000000E-06 FOR ALL ASSIGNED CONDITIONS

 *C              *CH             CH2             CH3             CH2OH          
 CH3O            CH4             CH3OH           CH3OOH          COOH           
 *C2             C2H             C2H2,acetylene  C2H2,vinylidene CH2CO,ketene   
 O(CH)2O         HO(CO)2OH       C2H3,vinyl      CH3CO,acetyl    C2H4           
 C2H4O,ethylen-o CH3CHO,ethanal  CH3COOH         OHCH2COOH       C2H5           
 C2H6            C2H5OH          CH3OCH3         CH3O2CH3        C2O            
 *C3             C3H3,1-propynl  C3H3,2-propynl  C3H4,allene     C3H4,propyne   
 C3H4,cyclo-     C3H5,allyl      C3H6,propylene  C3H6,cyclo-     C3H6O,propylox 
 C3H6O,acetone   C3H6O,propanal  C3H7,n-propyl   C3H7,i-propyl   C3H8           
 C3H8O,1propanol C3H8O,2propanol C3O2            *C4             C4H2,butadiyne 
 C4H4,1,3-cyclo- C4H6,butadiene  C4H6,1butyne    C4H6,2butyne    C4H6,cyclo-    
 C4H8,1-butene   C4H8,cis2-buten C4H8,tr2-butene C4H8,isobutene  C4H8,cyclo-    
 (CH3COOH)2      C4H9,n-butyl    C4H9,i-butyl    C4H9,s-butyl    C4H9,t-butyl   
 C4H10,n-butane  C4H10,isobutane *C5             C5H6,1,3cyclo-  C5H8,cyclo-    
 C5H10,1-pentene C5H10,cyclo-    C5H11,pentyl    C5H11,t-pentyl  C5H12,n-pentane
 C5H12,i-pentane CH3C(CH3)2CH3   C6H2            C6H5,phenyl     C6H5O,phenoxy  
 C6H6            C6H5OH,phenol   C6H10,cyclo-    C6H12,1-hexene  C6H12,cyclo-   
 C6H13,n-hexyl   C6H14,n-hexane  C7H7,benzyl     C7H8            C7H8O,cresol-mx
 C7H14,1-heptene C7H15,n-heptyl  C7H16,n-heptane C7H16,2-methylh C8H8,styrene   
 C8H10,ethylbenz C8H16,1-octene  C8H17,n-octyl   C8H18,n-octane  C8H18,isooctane
 C9H19,n-nonyl   C10H8,naphthale C10H21,n-decyl  C12H9,o-bipheny C12H10,biphenyl
 HCO             HCCO            HO2             HCHO,formaldehy HCOOH          
 H2O2            (HCOOH)2        *O              *O2             O3             
 C(gr)           H2O(cr)         H2O(L)         

 NOTE. WEIGHT FRACTION OF FUEL IN TOTAL FUELS AND OF OXIDANT IN TOTAL OXIDANTS






 WARNING!!  ASSIGNED pip =   0.00000 IS NOT PERMITTED
 TO BE LESS THAN  Pinj/Pc =  1.00748. POINT OMITTED (ROCKET)





              THEORETICAL ROCKET PERFORMANCE ASSUMING EQUILIBRIUM

            COMPOSITION DURING EXPANSION FROM FINITE AREA COMBUSTOR

 Pin =    68.5 PSIA
 Ac/At =  7.6749      Pinj/Pinf =  1.003719
 CASE =                

             REACTANT                    WT FRACTION      ENERGY      TEMP
                                          (SEE NOTE)     KJ/KG-MOL      K  
 OXIDANT     O2                           0.9807872      2545.428    384.000
 OXIDANT     H2O                          0.0115277   -238921.312    384.000
 OXIDANT     CO2                          0.0076851   -390162.812    384.000
 FUEL        PMMA                         1.0000000   -442140.000    293.150

 O/F=    0.74497  %FUEL= 57.307710  R,EQ.RATIO= 2.117690  PHI,EQ.RATIO= 2.624648

                 INJECTOR  COMB END  THROAT
 Pinj/P            1.0000   1.0075   1.8214
 P, BAR            4.7200   4.6850   2.5914
 T, K             1930.92  1929.41  1702.54
 RHO, KG/CU M    5.6677-1 5.6301-1 3.5296-1
 H, KJ/KG        -2591.92 -2595.03 -3058.25
 U, KJ/KG        -3424.71 -3427.16 -3792.46
 G, KJ/KG        -26120.7 -26108.4 -23806.9
 S, KJ/(KG)(K)    12.1852  12.1868  12.1868

 M, (1/n)          19.278   19.278   19.280
 (dLV/dLP)t      -1.00007 -1.00007 -1.00002
 (dLV/dLT)p        1.0019   1.0019   1.0005
 Cp, KJ/(KG)(K)    2.0635   2.0633   2.0284
 GAMMAs            1.2654   1.2654   1.2703
 SON VEL,M/SEC     1026.6   1026.2    965.7
 MACH NUMBER        0.000    0.077    1.000

 PERFORMANCE PARAMETERS

 Ae/At                      7.6749   1.0000
 CSTAR, M/SEC               1379.6   1379.6
 CF                         0.0572   0.7000
 Ivac, M/SEC               10627.6   1726.0
 Isp, M/SEC                   78.9    965.7


 MOLE FRACTIONS

 *CO              0.50451  0.50447  0.49732
 *CO2             0.04869  0.04873  0.05593
 *H               0.00026  0.00026  0.00005
 *H2              0.31505  0.31510  0.32242
 H2O              0.13148  0.13144  0.12427
 *OH              0.00001  0.00001  0.00000

  * THERMODYNAMIC PROPERTIES FITTED TO 20000.K

    PRODUCTS WHICH WERE CONSIDERED BUT WHOSE MOLE FRACTIONS
    WERE LESS THAN 5.000000E-06 FOR ALL ASSIGNED CONDITIONS

 *C              *CH             CH2             CH3             CH2OH          
 CH3O            CH4             CH3OH           CH3OOH          COOH           
 *C2             C2H             C2H2,acetylene  C2H2,vinylidene CH2CO,ketene   
 O(CH)2O         HO(CO)2OH       C2H3,vinyl      CH3CO,acetyl    C2H4           
 C2H4O,ethylen-o CH3CHO,ethanal  CH3COOH         OHCH2COOH       C2H5           
 C2H6            C2H5OH          CH3OCH3         CH3O2CH3        C2O            
 *C3             C3H3,1-propynl  C3H3,2-propynl  C3H4,allene     C3H4,propyne   
 C3H4,cyclo-     C3H5,allyl      C3H6,propylene  C3H6,cyclo-     C3H6O,propylox 
 C3H6O,acetone   C3H6O,propanal  C3H7,n-propyl   C3H7,i-propyl   C3H8           
 C3H8O,1propanol C3H8O,2propanol C3O2            *C4             C4H2,butadiyne 
 C4H4,1,3-cyclo- C4H6,butadiene  C4H6,1butyne    C4H6,2butyne    C4H6,cyclo-    
 C4H8,1-butene   C4H8,cis2-buten C4H8,tr2-butene C4H8,isobutene  C4H8,cyclo-    
 (CH3COOH)2      C4H9,n-butyl    C4H9,i-butyl    C4H9,s-butyl    C4H9,t-butyl   
 C4H10,n-butane  C4H10,isobutane *C5             C5H6,1,3cyclo-  C5H8,cyclo-    
 C5H10,1-pentene C5H10,cyclo-    C5H11,pentyl    C5H11,t-pentyl  C5H12,n-pentane
 C5H12,i-pentane CH3C(CH3)2CH3   C6H2            C6H5,phenyl     C6H5O,phenoxy  
 C6H6            C6H5OH,phenol   C6H10,cyclo-    C6H12,1-hexene  C6H12,cyclo-   
 C6H13,n-hexyl   C6H14,n-hexane  C7H7,benzyl     C7H8            C7H8O,cresol-mx
 C7H14,1-heptene C7H15,n-heptyl  C7H16,n-heptane C7H16,2-methylh C8H8,styrene   
 C8H10,ethylbenz C8H16,1-octene  C8H17,n-octyl   C8H18,n-octane  C8H18,isooctane
 C9H19,n-nonyl   C10H8,naphthale C10H21,n-decyl  C12H9,o-bipheny C12H10,biphenyl
 HCO             HCCO            HO2             HCHO,formaldehy HCOOH          
 H2O2            (HCOOH)2        *O              *O2             O3             
 C(gr)           H2O(cr)         H2O(L)         

 NOTE. WEIGHT FRACTION OF FUEL IN TOTAL FUELS AND OF OXIDANT IN TOTAL OXIDANTS






 WARNING!!  ASSIGNED pip =   0.00000 IS NOT PERMITTED
 TO BE LESS THAN  Pinj/Pc =  1.00748. POINT OMITTED (ROCKET)





              THEORETICAL ROCKET PERFORMANCE ASSUMING EQUILIBRIUM

            COMPOSITION DURING EXPANSION FROM FINITE AREA COMBUSTOR

 Pin =    68.5 PSIA
 Ac/At =  7.6749      Pinj/Pinf =  1.003719
 CASE =                

             REACTANT                    WT FRACTION      ENERGY      TEMP
                                          (SEE NOTE)     KJ/KG-MOL      K  
 OXIDANT     O2                           0.9807872      2545.428    384.000
 OXIDANT     H2O                          0.0115277   -238921.312    384.000
 OXIDANT     CO2                          0.0076851   -390162.812    384.000
 FUEL        PMMA                         1.0000000   -442140.000    293.150

 O/F=    0.74497  %FUEL= 57.307710  R,EQ.RATIO= 2.117690  PHI,EQ.RATIO= 2.624648

                 INJECTOR  COMB END  THROAT
 Pinj/P            1.0000   1.0075   1.8214
 P, BAR            4.7200   4.6850   2.5914
 T, K             1930.92  1929.41  1702.54
 RHO, KG/CU M    5.6677-1 5.6301-1 3.5296-1
 H, KJ/KG        -2591.92 -2595.03 -3058.25
 U, KJ/KG        -3424.71 -3427.16 -3792.46
 G, KJ/KG        -26120.7 -26108.4 -23806.9
 S, KJ/(KG)(K)    12.1852  12.1868  12.1868

 M, (1/n)          19.278   19.278   19.280
 (dLV/dLP)t      -1.00007 -1.00007 -1.00002
 (dLV/dLT)p        1.0019   1.0019   1.0005
 Cp, KJ/(KG)(K)    2.0635   2.0633   2.0284
 GAMMAs            1.2654   1.2654   1.2703
 SON VEL,M/SEC     1026.6   1026.2    965.7
 MACH NUMBER        0.000    0.077    1.000

 PERFORMANCE PARAMETERS

 Ae/At                      7.6749   1.0000
 CSTAR, M/SEC               1379.6   1379.6
 CF                         0.0572   0.7000
 Ivac, M/SEC               10627.6   1726.0
 Isp, M/SEC                   78.9    965.7


 MOLE FRACTIONS

 *CO              0.50451  0.50447  0.49732
 *CO2             0.04869  0.04873  0.05593
 *H               0.00026  0.00026  0.00005
 *H2              0.31505  0.31510  0.32242
 H2O              0.13148  0.13144  0.12427
 *OH              0.00001  0.00001  0.00000

  * THERMODYNAMIC PROPERTIES FITTED TO 20000.K

    PRODUCTS WHICH WERE CONSIDERED BUT WHOSE MOLE FRACTIONS
    WERE LESS THAN 5.000000E-06 FOR ALL ASSIGNED CONDITIONS

 *C              *CH             CH2             CH3             CH2OH          
 CH3O            CH4             CH3OH           CH3OOH          COOH           
 *C2             C2H             C2H2,acetylene  C2H2,vinylidene CH2CO,ketene   
 O(CH)2O         HO(CO)2OH       C2H3,vinyl      CH3CO,acetyl    C2H4           
 C2H4O,ethylen-o CH3CHO,ethanal  CH3COOH         OHCH2COOH       C2H5           
 C2H6            C2H5OH          CH3OCH3         CH3O2CH3        C2O            
 *C3             C3H3,1-propynl  C3H3,2-propynl  C3H4,allene     C3H4,propyne   
 C3H4,cyclo-     C3H5,allyl      C3H6,propylene  C3H6,cyclo-     C3H6O,propylox 
 C3H6O,acetone   C3H6O,propanal  C3H7,n-propyl   C3H7,i-propyl   C3H8           
 C3H8O,1propanol C3H8O,2propanol C3O2            *C4             C4H2,butadiyne 
 C4H4,1,3-cyclo- C4H6,butadiene  C4H6,1butyne    C4H6,2butyne    C4H6,cyclo-    
 C4H8,1-butene   C4H8,cis2-buten C4H8,tr2-butene C4H8,isobutene  C4H8,cyclo-    
 (CH3COOH)2      C4H9,n-butyl    C4H9,i-butyl    C4H9,s-butyl    C4H9,t-butyl   
 C4H10,n-butane  C4H10,isobutane *C5             C5H6,1,3cyclo-  C5H8,cyclo-    
 C5H10,1-pentene C5H10,cyclo-    C5H11,pentyl    C5H11,t-pentyl  C5H12,n-pentane
 C5H12,i-pentane CH3C(CH3)2CH3   C6H2            C6H5,phenyl     C6H5O,phenoxy  
 C6H6            C6H5OH,phenol   C6H10,cyclo-    C6H12,1-hexene  C6H12,cyclo-   
 C6H13,n-hexyl   C6H14,n-hexane  C7H7,benzyl     C7H8            C7H8O,cresol-mx
 C7H14,1-heptene C7H15,n-heptyl  C7H16,n-heptane C7H16,2-methylh C8H8,styrene   
 C8H10,ethylbenz C8H16,1-octene  C8H17,n-octyl   C8H18,n-octane  C8H18,isooctane
 C9H19,n-nonyl   C10H8,naphthale C10H21,n-decyl  C12H9,o-bipheny C12H10,biphenyl
 HCO             HCCO            HO2             HCHO,formaldehy HCOOH          
 H2O2            (HCOOH)2        *O              *O2             O3             
 C(gr)           H2O(cr)         H2O(L)         

 NOTE. WEIGHT FRACTION OF FUEL IN TOTAL FUELS AND OF OXIDANT IN TOTAL OXIDANTS






 WARNING!!  ASSIGNED pip =   0.00000 IS NOT PERMITTED
 TO BE LESS THAN  Pinj/Pc =  1.00748. POINT OMITTED (ROCKET)





              THEORETICAL ROCKET PERFORMANCE ASSUMING EQUILIBRIUM

            COMPOSITION DURING EXPANSION FROM FINITE AREA COMBUSTOR

 Pin =    68.5 PSIA
 Ac/At =  7.6749      Pinj/Pinf =  1.003719
 CASE =                

             REACTANT                    WT FRACTION      ENERGY      TEMP
                                          (SEE NOTE)     KJ/KG-MOL      K  
 OXIDANT     O2                           0.9807872      2545.428    384.000
 OXIDANT     H2O                          0.0115277   -238921.312    384.000
 OXIDANT     CO2                          0.0076851   -390162.812    384.000
 FUEL        PMMA                         1.0000000   -442140.000    293.150

 O/F=    0.74497  %FUEL= 57.307710  R,EQ.RATIO= 2.117690  PHI,EQ.RATIO= 2.624648

                 INJECTOR  COMB END  THROAT
 Pinj/P            1.0000   1.0075   1.8214
 P, BAR            4.7200   4.6850   2.5914
 T, K             1930.92  1929.41  1702.54
 RHO, KG/CU M    5.6677-1 5.6301-1 3.5296-1
 H, KJ/KG        -2591.92 -2595.03 -3058.25
 U, KJ/KG        -3424.71 -3427.16 -3792.46
 G, KJ/KG        -26120.7 -26108.4 -23806.9
 S, KJ/(KG)(K)    12.1852  12.1868  12.1868

 M, (1/n)          19.278   19.278   19.280
 (dLV/dLP)t      -1.00007 -1.00007 -1.00002
 (dLV/dLT)p        1.0019   1.0019   1.0005
 Cp, KJ/(KG)(K)    2.0635   2.0633   2.0284
 GAMMAs            1.2654   1.2654   1.2703
 SON VEL,M/SEC     1026.6   1026.2    965.7
 MACH NUMBER        0.000    0.077    1.000

 PERFORMANCE PARAMETERS

 Ae/At                      7.6749   1.0000
 CSTAR, M/SEC               1379.6   1379.6
 CF                         0.0572   0.7000
 Ivac, M/SEC               10627.6   1726.0
 Isp, M/SEC                   78.9    965.7


 MOLE FRACTIONS

 *CO              0.50451  0.50447  0.49732
 *CO2             0.04869  0.04873  0.05593
 *H               0.00026  0.00026  0.00005
 *H2              0.31505  0.31510  0.32242
 H2O              0.13148  0.13144  0.12427
 *OH              0.00001  0.00001  0.00000

  * THERMODYNAMIC PROPERTIES FITTED TO 20000.K

    PRODUCTS WHICH WERE CONSIDERED BUT WHOSE MOLE FRACTIONS
    WERE LESS THAN 5.000000E-06 FOR ALL ASSIGNED CONDITIONS

 *C              *CH             CH2             CH3             CH2OH          
 CH3O            CH4             CH3OH           CH3OOH          COOH           
 *C2             C2H             C2H2,acetylene  C2H2,vinylidene CH2CO,ketene   
 O(CH)2O         HO(CO)2OH       C2H3,vinyl      CH3CO,acetyl    C2H4           
 C2H4O,ethylen-o CH3CHO,ethanal  CH3COOH         OHCH2COOH       C2H5           
 C2H6            C2H5OH          CH3OCH3         CH3O2CH3        C2O            
 *C3             C3H3,1-propynl  C3H3,2-propynl  C3H4,allene     C3H4,propyne   
 C3H4,cyclo-     C3H5,allyl      C3H6,propylene  C3H6,cyclo-     C3H6O,propylox 
 C3H6O,acetone   C3H6O,propanal  C3H7,n-propyl   C3H7,i-propyl   C3H8           
 C3H8O,1propanol C3H8O,2propanol C3O2            *C4             C4H2,butadiyne 
 C4H4,1,3-cyclo- C4H6,butadiene  C4H6,1butyne    C4H6,2butyne    C4H6,cyclo-    
 C4H8,1-butene   C4H8,cis2-buten C4H8,tr2-butene C4H8,isobutene  C4H8,cyclo-    
 (CH3COOH)2      C4H9,n-butyl    C4H9,i-butyl    C4H9,s-butyl    C4H9,t-butyl   
 C4H10,n-butane  C4H10,isobutane *C5             C5H6,1,3cyclo-  C5H8,cyclo-    
 C5H10,1-pentene C5H10,cyclo-    C5H11,pentyl    C5H11,t-pentyl  C5H12,n-pentane
 C5H12,i-pentane CH3C(CH3)2CH3   C6H2            C6H5,phenyl     C6H5O,phenoxy  
 C6H6            C6H5OH,phenol   C6H10,cyclo-    C6H12,1-hexene  C6H12,cyclo-   
 C6H13,n-hexyl   C6H14,n-hexane  C7H7,benzyl     C7H8            C7H8O,cresol-mx
 C7H14,1-heptene C7H15,n-heptyl  C7H16,n-heptane C7H16,2-methylh C8H8,styrene   
 C8H10,ethylbenz C8H16,1-octene  C8H17,n-octyl   C8H18,n-octane  C8H18,isooctane
 C9H19,n-nonyl   C10H8,naphthale C10H21,n-decyl  C12H9,o-bipheny C12H10,biphenyl
 HCO             HCCO            HO2             HCHO,formaldehy HCOOH          
 H2O2            (HCOOH)2        *O              *O2             O3             
 C(gr)           H2O(cr)         H2O(L)         

 NOTE. WEIGHT FRACTION OF FUEL IN TOTAL FUELS AND OF OXIDANT IN TOTAL OXIDANTS






 WARNING!!  ASSIGNED pip =   0.00000 IS NOT PERMITTED
 TO BE LESS THAN  Pinj/Pc =  1.00748. POINT OMITTED (ROCKET)





              THEORETICAL ROCKET PERFORMANCE ASSUMING EQUILIBRIUM

            COMPOSITION DURING EXPANSION FROM FINITE AREA COMBUSTOR

 Pin =    68.5 PSIA
 Ac/At =  7.6749      Pinj/Pinf =  1.003719
 CASE =                

             REACTANT                    WT FRACTION      ENERGY      TEMP
                                          (SEE NOTE)     KJ/KG-MOL      K  
 OXIDANT     O2                           0.9807872      2545.428    384.000
 OXIDANT     H2O                          0.0115277   -238921.312    384.000
 OXIDANT     CO2                          0.0076851   -390162.812    384.000
 FUEL        PMMA                         1.0000000   -442140.000    293.150

 O/F=    0.74497  %FUEL= 57.307710  R,EQ.RATIO= 2.117690  PHI,EQ.RATIO= 2.624648

                 INJECTOR  COMB END  THROAT
 Pinj/P            1.0000   1.0075   1.8214
 P, BAR            4.7200   4.6850   2.5914
 T, K             1930.92  1929.41  1702.54
 RHO, KG/CU M    5.6677-1 5.6301-1 3.5296-1
 H, KJ/KG        -2591.92 -2595.03 -3058.25
 U, KJ/KG        -3424.71 -3427.16 -3792.46
 G, KJ/KG        -26120.7 -26108.4 -23806.9
 S, KJ/(KG)(K)    12.1852  12.1868  12.1868

 M, (1/n)          19.278   19.278   19.280
 (dLV/dLP)t      -1.00007 -1.00007 -1.00002
 (dLV/dLT)p        1.0019   1.0019   1.0005
 Cp, KJ/(KG)(K)    2.0635   2.0633   2.0284
 GAMMAs            1.2654   1.2654   1.2703
 SON VEL,M/SEC     1026.6   1026.2    965.7
 MACH NUMBER        0.000    0.077    1.000

 PERFORMANCE PARAMETERS

 Ae/At                      7.6749   1.0000
 CSTAR, M/SEC               1379.6   1379.6
 CF                         0.0572   0.7000
 Ivac, M/SEC               10627.6   1726.0
 Isp, M/SEC                   78.9    965.7


 MOLE FRACTIONS

 *CO              0.50451  0.50447  0.49732
 *CO2             0.04869  0.04873  0.05593
 *H               0.00026  0.00026  0.00005
 *H2              0.31505  0.31510  0.32242
 H2O              0.13148  0.13144  0.12427
 *OH              0.00001  0.00001  0.00000

  * THERMODYNAMIC PROPERTIES FITTED TO 20000.K

    PRODUCTS WHICH WERE CONSIDERED BUT WHOSE MOLE FRACTIONS
    WERE LESS THAN 5.000000E-06 FOR ALL ASSIGNED CONDITIONS

 *C              *CH             CH2             CH3             CH2OH          
 CH3O            CH4             CH3OH           CH3OOH          COOH           
 *C2             C2H             C2H2,acetylene  C2H2,vinylidene CH2CO,ketene   
 O(CH)2O         HO(CO)2OH       C2H3,vinyl      CH3CO,acetyl    C2H4           
 C2H4O,ethylen-o CH3CHO,ethanal  CH3COOH         OHCH2COOH       C2H5           
 C2H6            C2H5OH          CH3OCH3         CH3O2CH3        C2O            
 *C3             C3H3,1-propynl  C3H3,2-propynl  C3H4,allene     C3H4,propyne   
 C3H4,cyclo-     C3H5,allyl      C3H6,propylene  C3H6,cyclo-     C3H6O,propylox 
 C3H6O,acetone   C3H6O,propanal  C3H7,n-propyl   C3H7,i-propyl   C3H8           
 C3H8O,1propanol C3H8O,2propanol C3O2            *C4             C4H2,butadiyne 
 C4H4,1,3-cyclo- C4H6,butadiene  C4H6,1butyne    C4H6,2butyne    C4H6,cyclo-    
 C4H8,1-butene   C4H8,cis2-buten C4H8,tr2-butene C4H8,isobutene  C4H8,cyclo-    
 (CH3COOH)2      C4H9,n-butyl    C4H9,i-butyl    C4H9,s-butyl    C4H9,t-butyl   
 C4H10,n-butane  C4H10,isobutane *C5             C5H6,1,3cyclo-  C5H8,cyclo-    
 C5H10,1-pentene C5H10,cyclo-    C5H11,pentyl    C5H11,t-pentyl  C5H12,n-pentane
 C5H12,i-pentane CH3C(CH3)2CH3   C6H2            C6H5,phenyl     C6H5O,phenoxy  
 C6H6            C6H5OH,phenol   C6H10,cyclo-    C6H12,1-hexene  C6H12,cyclo-   
 C6H13,n-hexyl   C6H14,n-hexane  C7H7,benzyl     C7H8            C7H8O,cresol-mx
 C7H14,1-heptene C7H15,n-heptyl  C7H16,n-heptane C7H16,2-methylh C8H8,styrene   
 C8H10,ethylbenz C8H16,1-octene  C8H17,n-octyl   C8H18,n-octane  C8H18,isooctane
 C9H19,n-nonyl   C10H8,naphthale C10H21,n-decyl  C12H9,o-bipheny C12H10,biphenyl
 HCO             HCCO            HO2             HCHO,formaldehy HCOOH          
 H2O2            (HCOOH)2        *O              *O2             O3             
 C(gr)           H2O(cr)         H2O(L)         

 NOTE. WEIGHT FRACTION OF FUEL IN TOTAL FUELS AND OF OXIDANT IN TOTAL OXIDANTS






 WARNING!!  ASSIGNED pip =   0.00000 IS NOT PERMITTED
 TO BE LESS THAN  Pinj/Pc =  1.00748. POINT OMITTED (ROCKET)





              THEORETICAL ROCKET PERFORMANCE ASSUMING EQUILIBRIUM

            COMPOSITION DURING EXPANSION FROM FINITE AREA COMBUSTOR

 Pin =    68.5 PSIA
 Ac/At =  7.6749      Pinj/Pinf =  1.003719
 CASE =                

             REACTANT                    WT FRACTION      ENERGY      TEMP
                                          (SEE NOTE)     KJ/KG-MOL      K  
 OXIDANT     O2                           0.9807872      2545.428    384.000
 OXIDANT     H2O                          0.0115277   -238921.312    384.000
 OXIDANT     CO2                          0.0076851   -390162.812    384.000
 FUEL        PMMA                         1.0000000   -442140.000    293.150

 O/F=    0.74497  %FUEL= 57.307710  R,EQ.RATIO= 2.117690  PHI,EQ.RATIO= 2.624648

                 INJECTOR  COMB END  THROAT
 Pinj/P            1.0000   1.0075   1.8214
 P, BAR            4.7200   4.6850   2.5914
 T, K             1930.92  1929.41  1702.54
 RHO, KG/CU M    5.6677-1 5.6301-1 3.5296-1
 H, KJ/KG        -2591.92 -2595.03 -3058.25
 U, KJ/KG        -3424.71 -3427.16 -3792.46
 G, KJ/KG        -26120.7 -26108.4 -23806.9
 S, KJ/(KG)(K)    12.1852  12.1868  12.1868

 M, (1/n)          19.278   19.278   19.280
 (dLV/dLP)t      -1.00007 -1.00007 -1.00002
 (dLV/dLT)p        1.0019   1.0019   1.0005
 Cp, KJ/(KG)(K)    2.0635   2.0633   2.0284
 GAMMAs            1.2654   1.2654   1.2703
 SON VEL,M/SEC     1026.6   1026.2    965.7
 MACH NUMBER        0.000    0.077    1.000

 PERFORMANCE PARAMETERS

 Ae/At                      7.6749   1.0000
 CSTAR, M/SEC               1379.6   1379.6
 CF                         0.0572   0.7000
 Ivac, M/SEC               10627.6   1726.0
 Isp, M/SEC                   78.9    965.7


 MOLE FRACTIONS

 *CO              0.50451  0.50447  0.49732
 *CO2             0.04869  0.04873  0.05593
 *H               0.00026  0.00026  0.00005
 *H2              0.31505  0.31510  0.32242
 H2O              0.13148  0.13144  0.12427
 *OH              0.00001  0.00001  0.00000

  * THERMODYNAMIC PROPERTIES FITTED TO 20000.K

    PRODUCTS WHICH WERE CONSIDERED BUT WHOSE MOLE FRACTIONS
    WERE LESS THAN 5.000000E-06 FOR ALL ASSIGNED CONDITIONS

 *C              *CH             CH2             CH3             CH2OH          
 CH3O            CH4             CH3OH           CH3OOH          COOH           
 *C2             C2H             C2H2,acetylene  C2H2,vinylidene CH2CO,ketene   
 O(CH)2O         HO(CO)2OH       C2H3,vinyl      CH3CO,acetyl    C2H4           
 C2H4O,ethylen-o CH3CHO,ethanal  CH3COOH         OHCH2COOH       C2H5           
 C2H6            C2H5OH          CH3OCH3         CH3O2CH3        C2O            
 *C3             C3H3,1-propynl  C3H3,2-propynl  C3H4,allene     C3H4,propyne   
 C3H4,cyclo-     C3H5,allyl      C3H6,propylene  C3H6,cyclo-     C3H6O,propylox 
 C3H6O,acetone   C3H6O,propanal  C3H7,n-propyl   C3H7,i-propyl   C3H8           
 C3H8O,1propanol C3H8O,2propanol C3O2            *C4             C4H2,butadiyne 
 C4H4,1,3-cyclo- C4H6,butadiene  C4H6,1butyne    C4H6,2butyne    C4H6,cyclo-    
 C4H8,1-butene   C4H8,cis2-buten C4H8,tr2-butene C4H8,isobutene  C4H8,cyclo-    
 (CH3COOH)2      C4H9,n-butyl    C4H9,i-butyl    C4H9,s-butyl    C4H9,t-butyl   
 C4H10,n-butane  C4H10,isobutane *C5             C5H6,1,3cyclo-  C5H8,cyclo-    
 C5H10,1-pentene C5H10,cyclo-    C5H11,pentyl    C5H11,t-pentyl  C5H12,n-pentane
 C5H12,i-pentane CH3C(CH3)2CH3   C6H2            C6H5,phenyl     C6H5O,phenoxy  
 C6H6            C6H5OH,phenol   C6H10,cyclo-    C6H12,1-hexene  C6H12,cyclo-   
 C6H13,n-hexyl   C6H14,n-hexane  C7H7,benzyl     C7H8            C7H8O,cresol-mx
 C7H14,1-heptene C7H15,n-heptyl  C7H16,n-heptane C7H16,2-methylh C8H8,styrene   
 C8H10,ethylbenz C8H16,1-octene  C8H17,n-octyl   C8H18,n-octane  C8H18,isooctane
 C9H19,n-nonyl   C10H8,naphthale C10H21,n-decyl  C12H9,o-bipheny C12H10,biphenyl
 HCO             HCCO            HO2             HCHO,formaldehy HCOOH          
 H2O2            (HCOOH)2        *O              *O2             O3             
 C(gr)           H2O(cr)         H2O(L)         

 NOTE. WEIGHT FRACTION OF FUEL IN TOTAL FUELS AND OF OXIDANT IN TOTAL OXIDANTS






 WARNING!!  ASSIGNED pip =   0.00000 IS NOT PERMITTED
 TO BE LESS THAN  Pinj/Pc =  1.00748. POINT OMITTED (ROCKET)





              THEORETICAL ROCKET PERFORMANCE ASSUMING EQUILIBRIUM

            COMPOSITION DURING EXPANSION FROM FINITE AREA COMBUSTOR

 Pin =    68.5 PSIA
 Ac/At =  7.6749      Pinj/Pinf =  1.003719
 CASE =                

             REACTANT                    WT FRACTION      ENERGY      TEMP
                                          (SEE NOTE)     KJ/KG-MOL      K  
 OXIDANT     O2                           0.9807872      2545.428    384.000
 OXIDANT     H2O                          0.0115277   -238921.312    384.000
 OXIDANT     CO2                          0.0076851   -390162.812    384.000
 FUEL        PMMA                         1.0000000   -442140.000    293.150

 O/F=    0.74497  %FUEL= 57.307710  R,EQ.RATIO= 2.117690  PHI,EQ.RATIO= 2.624648

                 INJECTOR  COMB END  THROAT
 Pinj/P            1.0000   1.0075   1.8214
 P, BAR            4.7200   4.6850   2.5914
 T, K             1930.92  1929.41  1702.54
 RHO, KG/CU M    5.6677-1 5.6301-1 3.5296-1
 H, KJ/KG        -2591.92 -2595.03 -3058.25
 U, KJ/KG        -3424.71 -3427.16 -3792.46
 G, KJ/KG        -26120.7 -26108.4 -23806.9
 S, KJ/(KG)(K)    12.1852  12.1868  12.1868

 M, (1/n)          19.278   19.278   19.280
 (dLV/dLP)t      -1.00007 -1.00007 -1.00002
 (dLV/dLT)p        1.0019   1.0019   1.0005
 Cp, KJ/(KG)(K)    2.0635   2.0633   2.0284
 GAMMAs            1.2654   1.2654   1.2703
 SON VEL,M/SEC     1026.6   1026.2    965.7
 MACH NUMBER        0.000    0.077    1.000

 PERFORMANCE PARAMETERS

 Ae/At                      7.6749   1.0000
 CSTAR, M/SEC               1379.6   1379.6
 CF                         0.0572   0.7000
 Ivac, M/SEC               10627.6   1726.0
 Isp, M/SEC                   78.9    965.7


 MOLE FRACTIONS

 *CO              0.50451  0.50447  0.49732
 *CO2             0.04869  0.04873  0.05593
 *H               0.00026  0.00026  0.00005
 *H2              0.31505  0.31510  0.32242
 H2O              0.13148  0.13144  0.12427
 *OH              0.00001  0.00001  0.00000

  * THERMODYNAMIC PROPERTIES FITTED TO 20000.K

    PRODUCTS WHICH WERE CONSIDERED BUT WHOSE MOLE FRACTIONS
    WERE LESS THAN 5.000000E-06 FOR ALL ASSIGNED CONDITIONS

 *C              *CH             CH2             CH3             CH2OH          
 CH3O            CH4             CH3OH           CH3OOH          COOH           
 *C2             C2H             C2H2,acetylene  C2H2,vinylidene CH2CO,ketene   
 O(CH)2O         HO(CO)2OH       C2H3,vinyl      CH3CO,acetyl    C2H4           
 C2H4O,ethylen-o CH3CHO,ethanal  CH3COOH         OHCH2COOH       C2H5           
 C2H6            C2H5OH          CH3OCH3         CH3O2CH3        C2O            
 *C3             C3H3,1-propynl  C3H3,2-propynl  C3H4,allene     C3H4,propyne   
 C3H4,cyclo-     C3H5,allyl      C3H6,propylene  C3H6,cyclo-     C3H6O,propylox 
 C3H6O,acetone   C3H6O,propanal  C3H7,n-propyl   C3H7,i-propyl   C3H8           
 C3H8O,1propanol C3H8O,2propanol C3O2            *C4             C4H2,butadiyne 
 C4H4,1,3-cyclo- C4H6,butadiene  C4H6,1butyne    C4H6,2butyne    C4H6,cyclo-    
 C4H8,1-butene   C4H8,cis2-buten C4H8,tr2-butene C4H8,isobutene  C4H8,cyclo-    
 (CH3COOH)2      C4H9,n-butyl    C4H9,i-butyl    C4H9,s-butyl    C4H9,t-butyl   
 C4H10,n-butane  C4H10,isobutane *C5             C5H6,1,3cyclo-  C5H8,cyclo-    
 C5H10,1-pentene C5H10,cyclo-    C5H11,pentyl    C5H11,t-pentyl  C5H12,n-pentane
 C5H12,i-pentane CH3C(CH3)2CH3   C6H2            C6H5,phenyl     C6H5O,phenoxy  
 C6H6            C6H5OH,phenol   C6H10,cyclo-    C6H12,1-hexene  C6H12,cyclo-   
 C6H13,n-hexyl   C6H14,n-hexane  C7H7,benzyl     C7H8            C7H8O,cresol-mx
 C7H14,1-heptene C7H15,n-heptyl  C7H16,n-heptane C7H16,2-methylh C8H8,styrene   
 C8H10,ethylbenz C8H16,1-octene  C8H17,n-octyl   C8H18,n-octane  C8H18,isooctane
 C9H19,n-nonyl   C10H8,naphthale C10H21,n-decyl  C12H9,o-bipheny C12H10,biphenyl
 HCO             HCCO            HO2             HCHO,formaldehy HCOOH          
 H2O2            (HCOOH)2        *O              *O2             O3             
 C(gr)           H2O(cr)         H2O(L)         

 NOTE. WEIGHT FRACTION OF FUEL IN TOTAL FUELS AND OF OXIDANT IN TOTAL OXIDANTS






 WARNING!!  ASSIGNED pip =   0.00000 IS NOT PERMITTED
 TO BE LESS THAN  Pinj/Pc =  1.00748. POINT OMITTED (ROCKET)





              THEORETICAL ROCKET PERFORMANCE ASSUMING EQUILIBRIUM

            COMPOSITION DURING EXPANSION FROM FINITE AREA COMBUSTOR

 Pin =    68.5 PSIA
 Ac/At =  7.6749      Pinj/Pinf =  1.003719
 CASE =                

             REACTANT                    WT FRACTION      ENERGY      TEMP
                                          (SEE NOTE)     KJ/KG-MOL      K  
 OXIDANT     O2                           0.9807872      2545.428    384.000
 OXIDANT     H2O                          0.0115277   -238921.312    384.000
 OXIDANT     CO2                          0.0076851   -390162.812    384.000
 FUEL        PMMA                         1.0000000   -442140.000    293.150

 O/F=    0.74497  %FUEL= 57.307710  R,EQ.RATIO= 2.117690  PHI,EQ.RATIO= 2.624648

                 INJECTOR  COMB END  THROAT
 Pinj/P            1.0000   1.0075   1.8214
 P, BAR            4.7200   4.6850   2.5914
 T, K             1930.92  1929.41  1702.54
 RHO, KG/CU M    5.6677-1 5.6301-1 3.5296-1
 H, KJ/KG        -2591.92 -2595.03 -3058.25
 U, KJ/KG        -3424.71 -3427.16 -3792.46
 G, KJ/KG        -26120.7 -26108.4 -23806.9
 S, KJ/(KG)(K)    12.1852  12.1868  12.1868

 M, (1/n)          19.278   19.278   19.280
 (dLV/dLP)t      -1.00007 -1.00007 -1.00002
 (dLV/dLT)p        1.0019   1.0019   1.0005
 Cp, KJ/(KG)(K)    2.0635   2.0633   2.0284
 GAMMAs            1.2654   1.2654   1.2703
 SON VEL,M/SEC     1026.6   1026.2    965.7
 MACH NUMBER        0.000    0.077    1.000

 PERFORMANCE PARAMETERS

 Ae/At                      7.6749   1.0000
 CSTAR, M/SEC               1379.6   1379.6
 CF                         0.0572   0.7000
 Ivac, M/SEC               10627.6   1726.0
 Isp, M/SEC                   78.9    965.7


 MOLE FRACTIONS

 *CO              0.50451  0.50447  0.49732
 *CO2             0.04869  0.04873  0.05593
 *H               0.00026  0.00026  0.00005
 *H2              0.31505  0.31510  0.32242
 H2O              0.13148  0.13144  0.12427
 *OH              0.00001  0.00001  0.00000

  * THERMODYNAMIC PROPERTIES FITTED TO 20000.K

    PRODUCTS WHICH WERE CONSIDERED BUT WHOSE MOLE FRACTIONS
    WERE LESS THAN 5.000000E-06 FOR ALL ASSIGNED CONDITIONS

 *C              *CH             CH2             CH3             CH2OH          
 CH3O            CH4             CH3OH           CH3OOH          COOH           
 *C2             C2H             C2H2,acetylene  C2H2,vinylidene CH2CO,ketene   
 O(CH)2O         HO(CO)2OH       C2H3,vinyl      CH3CO,acetyl    C2H4           
 C2H4O,ethylen-o CH3CHO,ethanal  CH3COOH         OHCH2COOH       C2H5           
 C2H6            C2H5OH          CH3OCH3         CH3O2CH3        C2O            
 *C3             C3H3,1-propynl  C3H3,2-propynl  C3H4,allene     C3H4,propyne   
 C3H4,cyclo-     C3H5,allyl      C3H6,propylene  C3H6,cyclo-     C3H6O,propylox 
 C3H6O,acetone   C3H6O,propanal  C3H7,n-propyl   C3H7,i-propyl   C3H8           
 C3H8O,1propanol C3H8O,2propanol C3O2            *C4             C4H2,butadiyne 
 C4H4,1,3-cyclo- C4H6,butadiene  C4H6,1butyne    C4H6,2butyne    C4H6,cyclo-    
 C4H8,1-butene   C4H8,cis2-buten C4H8,tr2-butene C4H8,isobutene  C4H8,cyclo-    
 (CH3COOH)2      C4H9,n-butyl    C4H9,i-butyl    C4H9,s-butyl    C4H9,t-butyl   
 C4H10,n-butane  C4H10,isobutane *C5             C5H6,1,3cyclo-  C5H8,cyclo-    
 C5H10,1-pentene C5H10,cyclo-    C5H11,pentyl    C5H11,t-pentyl  C5H12,n-pentane
 C5H12,i-pentane CH3C(CH3)2CH3   C6H2            C6H5,phenyl     C6H5O,phenoxy  
 C6H6            C6H5OH,phenol   C6H10,cyclo-    C6H12,1-hexene  C6H12,cyclo-   
 C6H13,n-hexyl   C6H14,n-hexane  C7H7,benzyl     C7H8            C7H8O,cresol-mx
 C7H14,1-heptene C7H15,n-heptyl  C7H16,n-heptane C7H16,2-methylh C8H8,styrene   
 C8H10,ethylbenz C8H16,1-octene  C8H17,n-octyl   C8H18,n-octane  C8H18,isooctane
 C9H19,n-nonyl   C10H8,naphthale C10H21,n-decyl  C12H9,o-bipheny C12H10,biphenyl
 HCO             HCCO            HO2             HCHO,formaldehy HCOOH          
 H2O2            (HCOOH)2        *O              *O2             O3             
 C(gr)           H2O(cr)         H2O(L)         

 NOTE. WEIGHT FRACTION OF FUEL IN TOTAL FUELS AND OF OXIDANT IN TOTAL OXIDANTS






 WARNING!!  ASSIGNED pip =   0.00000 IS NOT PERMITTED
 TO BE LESS THAN  Pinj/Pc =  1.00748. POINT OMITTED (ROCKET)





              THEORETICAL ROCKET PERFORMANCE ASSUMING EQUILIBRIUM

            COMPOSITION DURING EXPANSION FROM FINITE AREA COMBUSTOR

 Pin =    68.5 PSIA
 Ac/At =  7.6749      Pinj/Pinf =  1.003719
 CASE =                

             REACTANT                    WT FRACTION      ENERGY      TEMP
                                          (SEE NOTE)     KJ/KG-MOL      K  
 OXIDANT     O2                           0.9807872      2545.428    384.000
 OXIDANT     H2O                          0.0115277   -238921.312    384.000
 OXIDANT     CO2                          0.0076851   -390162.812    384.000
 FUEL        PMMA                         1.0000000   -442140.000    293.150

 O/F=    0.74497  %FUEL= 57.307710  R,EQ.RATIO= 2.117690  PHI,EQ.RATIO= 2.624648

                 INJECTOR  COMB END  THROAT
 Pinj/P            1.0000   1.0075   1.8214
 P, BAR            4.7200   4.6850   2.5914
 T, K             1930.92  1929.41  1702.54
 RHO, KG/CU M    5.6677-1 5.6301-1 3.5296-1
 H, KJ/KG        -2591.92 -2595.03 -3058.25
 U, KJ/KG        -3424.71 -3427.16 -3792.46
 G, KJ/KG        -26120.7 -26108.4 -23806.9
 S, KJ/(KG)(K)    12.1852  12.1868  12.1868

 M, (1/n)          19.278   19.278   19.280
 (dLV/dLP)t      -1.00007 -1.00007 -1.00002
 (dLV/dLT)p        1.0019   1.0019   1.0005
 Cp, KJ/(KG)(K)    2.0635   2.0633   2.0284
 GAMMAs            1.2654   1.2654   1.2703
 SON VEL,M/SEC     1026.6   1026.2    965.7
 MACH NUMBER        0.000    0.077    1.000

 PERFORMANCE PARAMETERS

 Ae/At                      7.6749   1.0000
 CSTAR, M/SEC               1379.6   1379.6
 CF                         0.0572   0.7000
 Ivac, M/SEC               10627.6   1726.0
 Isp, M/SEC                   78.9    965.7


 MOLE FRACTIONS

 *CO              0.50451  0.50447  0.49732
 *CO2             0.04869  0.04873  0.05593
 *H               0.00026  0.00026  0.00005
 *H2              0.31505  0.31510  0.32242
 H2O              0.13148  0.13144  0.12427
 *OH              0.00001  0.00001  0.00000

  * THERMODYNAMIC PROPERTIES FITTED TO 20000.K

    PRODUCTS WHICH WERE CONSIDERED BUT WHOSE MOLE FRACTIONS
    WERE LESS THAN 5.000000E-06 FOR ALL ASSIGNED CONDITIONS

 *C              *CH             CH2             CH3             CH2OH          
 CH3O            CH4             CH3OH           CH3OOH          COOH           
 *C2             C2H             C2H2,acetylene  C2H2,vinylidene CH2CO,ketene   
 O(CH)2O         HO(CO)2OH       C2H3,vinyl      CH3CO,acetyl    C2H4           
 C2H4O,ethylen-o CH3CHO,ethanal  CH3COOH         OHCH2COOH       C2H5           
 C2H6            C2H5OH          CH3OCH3         CH3O2CH3        C2O            
 *C3             C3H3,1-propynl  C3H3,2-propynl  C3H4,allene     C3H4,propyne   
 C3H4,cyclo-     C3H5,allyl      C3H6,propylene  C3H6,cyclo-     C3H6O,propylox 
 C3H6O,acetone   C3H6O,propanal  C3H7,n-propyl   C3H7,i-propyl   C3H8           
 C3H8O,1propanol C3H8O,2propanol C3O2            *C4             C4H2,butadiyne 
 C4H4,1,3-cyclo- C4H6,butadiene  C4H6,1butyne    C4H6,2butyne    C4H6,cyclo-    
 C4H8,1-butene   C4H8,cis2-buten C4H8,tr2-butene C4H8,isobutene  C4H8,cyclo-    
 (CH3COOH)2      C4H9,n-butyl    C4H9,i-butyl    C4H9,s-butyl    C4H9,t-butyl   
 C4H10,n-butane  C4H10,isobutane *C5             C5H6,1,3cyclo-  C5H8,cyclo-    
 C5H10,1-pentene C5H10,cyclo-    C5H11,pentyl    C5H11,t-pentyl  C5H12,n-pentane
 C5H12,i-pentane CH3C(CH3)2CH3   C6H2            C6H5,phenyl     C6H5O,phenoxy  
 C6H6            C6H5OH,phenol   C6H10,cyclo-    C6H12,1-hexene  C6H12,cyclo-   
 C6H13,n-hexyl   C6H14,n-hexane  C7H7,benzyl     C7H8            C7H8O,cresol-mx
 C7H14,1-heptene C7H15,n-heptyl  C7H16,n-heptane C7H16,2-methylh C8H8,styrene   
 C8H10,ethylbenz C8H16,1-octene  C8H17,n-octyl   C8H18,n-octane  C8H18,isooctane
 C9H19,n-nonyl   C10H8,naphthale C10H21,n-decyl  C12H9,o-bipheny C12H10,biphenyl
 HCO             HCCO            HO2             HCHO,formaldehy HCOOH          
 H2O2            (HCOOH)2        *O              *O2             O3             
 C(gr)           H2O(cr)         H2O(L)         

 NOTE. WEIGHT FRACTION OF FUEL IN TOTAL FUELS AND OF OXIDANT IN TOTAL OXIDANTS






 WARNING!!  ASSIGNED pip =   0.00000 IS NOT PERMITTED
 TO BE LESS THAN  Pinj/Pc =  1.00748. POINT OMITTED (ROCKET)





              THEORETICAL ROCKET PERFORMANCE ASSUMING EQUILIBRIUM

            COMPOSITION DURING EXPANSION FROM FINITE AREA COMBUSTOR

 Pin =    68.5 PSIA
 Ac/At =  7.6749      Pinj/Pinf =  1.003719
 CASE =                

             REACTANT                    WT FRACTION      ENERGY      TEMP
                                          (SEE NOTE)     KJ/KG-MOL      K  
 OXIDANT     O2                           0.9807872      2545.428    384.000
 OXIDANT     H2O                          0.0115277   -238921.312    384.000
 OXIDANT     CO2                          0.0076851   -390162.812    384.000
 FUEL        PMMA                         1.0000000   -442140.000    293.150

 O/F=    0.74497  %FUEL= 57.307710  R,EQ.RATIO= 2.117690  PHI,EQ.RATIO= 2.624648

                 INJECTOR  COMB END  THROAT
 Pinj/P            1.0000   1.0075   1.8214
 P, BAR            4.7200   4.6850   2.5914
 T, K             1930.92  1929.41  1702.54
 RHO, KG/CU M    5.6677-1 5.6301-1 3.5296-1
 H, KJ/KG        -2591.92 -2595.03 -3058.25
 U, KJ/KG        -3424.71 -3427.16 -3792.46
 G, KJ/KG        -26120.7 -26108.4 -23806.9
 S, KJ/(KG)(K)    12.1852  12.1868  12.1868

 M, (1/n)          19.278   19.278   19.280
 (dLV/dLP)t      -1.00007 -1.00007 -1.00002
 (dLV/dLT)p        1.0019   1.0019   1.0005
 Cp, KJ/(KG)(K)    2.0635   2.0633   2.0284
 GAMMAs            1.2654   1.2654   1.2703
 SON VEL,M/SEC     1026.6   1026.2    965.7
 MACH NUMBER        0.000    0.077    1.000

 PERFORMANCE PARAMETERS

 Ae/At                      7.6749   1.0000
 CSTAR, M/SEC               1379.6   1379.6
 CF                         0.0572   0.7000
 Ivac, M/SEC               10627.6   1726.0
 Isp, M/SEC                   78.9    965.7


 MOLE FRACTIONS

 *CO              0.50451  0.50447  0.49732
 *CO2             0.04869  0.04873  0.05593
 *H               0.00026  0.00026  0.00005
 *H2              0.31505  0.31510  0.32242
 H2O              0.13148  0.13144  0.12427
 *OH              0.00001  0.00001  0.00000

  * THERMODYNAMIC PROPERTIES FITTED TO 20000.K

    PRODUCTS WHICH WERE CONSIDERED BUT WHOSE MOLE FRACTIONS
    WERE LESS THAN 5.000000E-06 FOR ALL ASSIGNED CONDITIONS

 *C              *CH             CH2             CH3             CH2OH          
 CH3O            CH4             CH3OH           CH3OOH          COOH           
 *C2             C2H             C2H2,acetylene  C2H2,vinylidene CH2CO,ketene   
 O(CH)2O         HO(CO)2OH       C2H3,vinyl      CH3CO,acetyl    C2H4           
 C2H4O,ethylen-o CH3CHO,ethanal  CH3COOH         OHCH2COOH       C2H5           
 C2H6            C2H5OH          CH3OCH3         CH3O2CH3        C2O            
 *C3             C3H3,1-propynl  C3H3,2-propynl  C3H4,allene     C3H4,propyne   
 C3H4,cyclo-     C3H5,allyl      C3H6,propylene  C3H6,cyclo-     C3H6O,propylox 
 C3H6O,acetone   C3H6O,propanal  C3H7,n-propyl   C3H7,i-propyl   C3H8           
 C3H8O,1propanol C3H8O,2propanol C3O2            *C4             C4H2,butadiyne 
 C4H4,1,3-cyclo- C4H6,butadiene  C4H6,1butyne    C4H6,2butyne    C4H6,cyclo-    
 C4H8,1-butene   C4H8,cis2-buten C4H8,tr2-butene C4H8,isobutene  C4H8,cyclo-    
 (CH3COOH)2      C4H9,n-butyl    C4H9,i-butyl    C4H9,s-butyl    C4H9,t-butyl   
 C4H10,n-butane  C4H10,isobutane *C5             C5H6,1,3cyclo-  C5H8,cyclo-    
 C5H10,1-pentene C5H10,cyclo-    C5H11,pentyl    C5H11,t-pentyl  C5H12,n-pentane
 C5H12,i-pentane CH3C(CH3)2CH3   C6H2            C6H5,phenyl     C6H5O,phenoxy  
 C6H6            C6H5OH,phenol   C6H10,cyclo-    C6H12,1-hexene  C6H12,cyclo-   
 C6H13,n-hexyl   C6H14,n-hexane  C7H7,benzyl     C7H8            C7H8O,cresol-mx
 C7H14,1-heptene C7H15,n-heptyl  C7H16,n-heptane C7H16,2-methylh C8H8,styrene   
 C8H10,ethylbenz C8H16,1-octene  C8H17,n-octyl   C8H18,n-octane  C8H18,isooctane
 C9H19,n-nonyl   C10H8,naphthale C10H21,n-decyl  C12H9,o-bipheny C12H10,biphenyl
 HCO             HCCO            HO2             HCHO,formaldehy HCOOH          
 H2O2            (HCOOH)2        *O              *O2             O3             
 C(gr)           H2O(cr)         H2O(L)         

 NOTE. WEIGHT FRACTION OF FUEL IN TOTAL FUELS AND OF OXIDANT IN TOTAL OXIDANTS






 WARNING!!  ASSIGNED pip =   0.00000 IS NOT PERMITTED
 TO BE LESS THAN  Pinj/Pc =  1.00748. POINT OMITTED (ROCKET)





              THEORETICAL ROCKET PERFORMANCE ASSUMING EQUILIBRIUM

            COMPOSITION DURING EXPANSION FROM FINITE AREA COMBUSTOR

 Pin =    68.5 PSIA
 Ac/At =  7.6749      Pinj/Pinf =  1.003719
 CASE =                

             REACTANT                    WT FRACTION      ENERGY      TEMP
                                          (SEE NOTE)     KJ/KG-MOL      K  
 OXIDANT     O2                           0.9807872      2545.428    384.000
 OXIDANT     H2O                          0.0115277   -238921.312    384.000
 OXIDANT     CO2                          0.0076851   -390162.812    384.000
 FUEL        PMMA                         1.0000000   -442140.000    293.150

 O/F=    0.74497  %FUEL= 57.307710  R,EQ.RATIO= 2.117690  PHI,EQ.RATIO= 2.624648

                 INJECTOR  COMB END  THROAT
 Pinj/P            1.0000   1.0075   1.8214
 P, BAR            4.7200   4.6850   2.5914
 T, K             1930.92  1929.41  1702.54
 RHO, KG/CU M    5.6677-1 5.6301-1 3.5296-1
 H, KJ/KG        -2591.92 -2595.03 -3058.25
 U, KJ/KG        -3424.71 -3427.16 -3792.46
 G, KJ/KG        -26120.7 -26108.4 -23806.9
 S, KJ/(KG)(K)    12.1852  12.1868  12.1868

 M, (1/n)          19.278   19.278   19.280
 (dLV/dLP)t      -1.00007 -1.00007 -1.00002
 (dLV/dLT)p        1.0019   1.0019   1.0005
 Cp, KJ/(KG)(K)    2.0635   2.0633   2.0284
 GAMMAs            1.2654   1.2654   1.2703
 SON VEL,M/SEC     1026.6   1026.2    965.7
 MACH NUMBER        0.000    0.077    1.000

 PERFORMANCE PARAMETERS

 Ae/At                      7.6749   1.0000
 CSTAR, M/SEC               1379.6   1379.6
 CF                         0.0572   0.7000
 Ivac, M/SEC               10627.6   1726.0
 Isp, M/SEC                   78.9    965.7


 MOLE FRACTIONS

 *CO              0.50451  0.50447  0.49732
 *CO2             0.04869  0.04873  0.05593
 *H               0.00026  0.00026  0.00005
 *H2              0.31505  0.31510  0.32242
 H2O              0.13148  0.13144  0.12427
 *OH              0.00001  0.00001  0.00000

  * THERMODYNAMIC PROPERTIES FITTED TO 20000.K

    PRODUCTS WHICH WERE CONSIDERED BUT WHOSE MOLE FRACTIONS
    WERE LESS THAN 5.000000E-06 FOR ALL ASSIGNED CONDITIONS

 *C              *CH             CH2             CH3             CH2OH          
 CH3O            CH4             CH3OH           CH3OOH          COOH           
 *C2             C2H             C2H2,acetylene  C2H2,vinylidene CH2CO,ketene   
 O(CH)2O         HO(CO)2OH       C2H3,vinyl      CH3CO,acetyl    C2H4           
 C2H4O,ethylen-o CH3CHO,ethanal  CH3COOH         OHCH2COOH       C2H5           
 C2H6            C2H5OH          CH3OCH3         CH3O2CH3        C2O            
 *C3             C3H3,1-propynl  C3H3,2-propynl  C3H4,allene     C3H4,propyne   
 C3H4,cyclo-     C3H5,allyl      C3H6,propylene  C3H6,cyclo-     C3H6O,propylox 
 C3H6O,acetone   C3H6O,propanal  C3H7,n-propyl   C3H7,i-propyl   C3H8           
 C3H8O,1propanol C3H8O,2propanol C3O2            *C4             C4H2,butadiyne 
 C4H4,1,3-cyclo- C4H6,butadiene  C4H6,1butyne    C4H6,2butyne    C4H6,cyclo-    
 C4H8,1-butene   C4H8,cis2-buten C4H8,tr2-butene C4H8,isobutene  C4H8,cyclo-    
 (CH3COOH)2      C4H9,n-butyl    C4H9,i-butyl    C4H9,s-butyl    C4H9,t-butyl   
 C4H10,n-butane  C4H10,isobutane *C5             C5H6,1,3cyclo-  C5H8,cyclo-    
 C5H10,1-pentene C5H10,cyclo-    C5H11,pentyl    C5H11,t-pentyl  C5H12,n-pentane
 C5H12,i-pentane CH3C(CH3)2CH3   C6H2            C6H5,phenyl     C6H5O,phenoxy  
 C6H6            C6H5OH,phenol   C6H10,cyclo-    C6H12,1-hexene  C6H12,cyclo-   
 C6H13,n-hexyl   C6H14,n-hexane  C7H7,benzyl     C7H8            C7H8O,cresol-mx
 C7H14,1-heptene C7H15,n-heptyl  C7H16,n-heptane C7H16,2-methylh C8H8,styrene   
 C8H10,ethylbenz C8H16,1-octene  C8H17,n-octyl   C8H18,n-octane  C8H18,isooctane
 C9H19,n-nonyl   C10H8,naphthale C10H21,n-decyl  C12H9,o-bipheny C12H10,biphenyl
 HCO             HCCO            HO2             HCHO,formaldehy HCOOH          
 H2O2            (HCOOH)2        *O              *O2             O3             
 C(gr)           H2O(cr)         H2O(L)         

 NOTE. WEIGHT FRACTION OF FUEL IN TOTAL FUELS AND OF OXIDANT IN TOTAL OXIDANTS






 WARNING!!  ASSIGNED pip =   0.00000 IS NOT PERMITTED
 TO BE LESS THAN  Pinj/Pc =  1.00748. POINT OMITTED (ROCKET)





              THEORETICAL ROCKET PERFORMANCE ASSUMING EQUILIBRIUM

            COMPOSITION DURING EXPANSION FROM FINITE AREA COMBUSTOR

 Pin =    68.5 PSIA
 Ac/At =  7.6749      Pinj/Pinf =  1.003719
 CASE =                

             REACTANT                    WT FRACTION      ENERGY      TEMP
                                          (SEE NOTE)     KJ/KG-MOL      K  
 OXIDANT     O2                           0.9807872      2545.428    384.000
 OXIDANT     H2O                          0.0115277   -238921.312    384.000
 OXIDANT     CO2                          0.0076851   -390162.812    384.000
 FUEL        PMMA                         1.0000000   -442140.000    293.150

 O/F=    0.74497  %FUEL= 57.307710  R,EQ.RATIO= 2.117690  PHI,EQ.RATIO= 2.624648

                 INJECTOR  COMB END  THROAT
 Pinj/P            1.0000   1.0075   1.8214
 P, BAR            4.7200   4.6850   2.5914
 T, K             1930.92  1929.41  1702.54
 RHO, KG/CU M    5.6677-1 5.6301-1 3.5296-1
 H, KJ/KG        -2591.92 -2595.03 -3058.25
 U, KJ/KG        -3424.71 -3427.16 -3792.46
 G, KJ/KG        -26120.7 -26108.4 -23806.9
 S, KJ/(KG)(K)    12.1852  12.1868  12.1868

 M, (1/n)          19.278   19.278   19.280
 (dLV/dLP)t      -1.00007 -1.00007 -1.00002
 (dLV/dLT)p        1.0019   1.0019   1.0005
 Cp, KJ/(KG)(K)    2.0635   2.0633   2.0284
 GAMMAs            1.2654   1.2654   1.2703
 SON VEL,M/SEC     1026.6   1026.2    965.7
 MACH NUMBER        0.000    0.077    1.000

 PERFORMANCE PARAMETERS

 Ae/At                      7.6749   1.0000
 CSTAR, M/SEC               1379.6   1379.6
 CF                         0.0572   0.7000
 Ivac, M/SEC               10627.6   1726.0
 Isp, M/SEC                   78.9    965.7


 MOLE FRACTIONS

 *CO              0.50451  0.50447  0.49732
 *CO2             0.04869  0.04873  0.05593
 *H               0.00026  0.00026  0.00005
 *H2              0.31505  0.31510  0.32242
 H2O              0.13148  0.13144  0.12427
 *OH              0.00001  0.00001  0.00000

  * THERMODYNAMIC PROPERTIES FITTED TO 20000.K

    PRODUCTS WHICH WERE CONSIDERED BUT WHOSE MOLE FRACTIONS
    WERE LESS THAN 5.000000E-06 FOR ALL ASSIGNED CONDITIONS

 *C              *CH             CH2             CH3             CH2OH          
 CH3O            CH4             CH3OH           CH3OOH          COOH           
 *C2             C2H             C2H2,acetylene  C2H2,vinylidene CH2CO,ketene   
 O(CH)2O         HO(CO)2OH       C2H3,vinyl      CH3CO,acetyl    C2H4           
 C2H4O,ethylen-o CH3CHO,ethanal  CH3COOH         OHCH2COOH       C2H5           
 C2H6            C2H5OH          CH3OCH3         CH3O2CH3        C2O            
 *C3             C3H3,1-propynl  C3H3,2-propynl  C3H4,allene     C3H4,propyne   
 C3H4,cyclo-     C3H5,allyl      C3H6,propylene  C3H6,cyclo-     C3H6O,propylox 
 C3H6O,acetone   C3H6O,propanal  C3H7,n-propyl   C3H7,i-propyl   C3H8           
 C3H8O,1propanol C3H8O,2propanol C3O2            *C4             C4H2,butadiyne 
 C4H4,1,3-cyclo- C4H6,butadiene  C4H6,1butyne    C4H6,2butyne    C4H6,cyclo-    
 C4H8,1-butene   C4H8,cis2-buten C4H8,tr2-butene C4H8,isobutene  C4H8,cyclo-    
 (CH3COOH)2      C4H9,n-butyl    C4H9,i-butyl    C4H9,s-butyl    C4H9,t-butyl   
 C4H10,n-butane  C4H10,isobutane *C5             C5H6,1,3cyclo-  C5H8,cyclo-    
 C5H10,1-pentene C5H10,cyclo-    C5H11,pentyl    C5H11,t-pentyl  C5H12,n-pentane
 C5H12,i-pentane CH3C(CH3)2CH3   C6H2            C6H5,phenyl     C6H5O,phenoxy  
 C6H6            C6H5OH,phenol   C6H10,cyclo-    C6H12,1-hexene  C6H12,cyclo-   
 C6H13,n-hexyl   C6H14,n-hexane  C7H7,benzyl     C7H8            C7H8O,cresol-mx
 C7H14,1-heptene C7H15,n-heptyl  C7H16,n-heptane C7H16,2-methylh C8H8,styrene   
 C8H10,ethylbenz C8H16,1-octene  C8H17,n-octyl   C8H18,n-octane  C8H18,isooctane
 C9H19,n-nonyl   C10H8,naphthale C10H21,n-decyl  C12H9,o-bipheny C12H10,biphenyl
 HCO             HCCO            HO2             HCHO,formaldehy HCOOH          
 H2O2            (HCOOH)2        *O              *O2             O3             
 C(gr)           H2O(cr)         H2O(L)         

 NOTE. WEIGHT FRACTION OF FUEL IN TOTAL FUELS AND OF OXIDANT IN TOTAL OXIDANTS






 WARNING!!  ASSIGNED pip =   0.00000 IS NOT PERMITTED
 TO BE LESS THAN  Pinj/Pc =  1.00748. POINT OMITTED (ROCKET)





              THEORETICAL ROCKET PERFORMANCE ASSUMING EQUILIBRIUM

            COMPOSITION DURING EXPANSION FROM FINITE AREA COMBUSTOR

 Pin =    68.5 PSIA
 Ac/At =  7.6749      Pinj/Pinf =  1.003719
 CASE =                

             REACTANT                    WT FRACTION      ENERGY      TEMP
                                          (SEE NOTE)     KJ/KG-MOL      K  
 OXIDANT     O2                           0.9807872      2545.428    384.000
 OXIDANT     H2O                          0.0115277   -238921.312    384.000
 OXIDANT     CO2                          0.0076851   -390162.812    384.000
 FUEL        PMMA                         1.0000000   -442140.000    293.150

 O/F=    0.74497  %FUEL= 57.307710  R,EQ.RATIO= 2.117690  PHI,EQ.RATIO= 2.624648

                 INJECTOR  COMB END  THROAT
 Pinj/P            1.0000   1.0075   1.8214
 P, BAR            4.7200   4.6850   2.5914
 T, K             1930.92  1929.41  1702.54
 RHO, KG/CU M    5.6677-1 5.6301-1 3.5296-1
 H, KJ/KG        -2591.92 -2595.03 -3058.25
 U, KJ/KG        -3424.71 -3427.16 -3792.46
 G, KJ/KG        -26120.7 -26108.4 -23806.9
 S, KJ/(KG)(K)    12.1852  12.1868  12.1868

 M, (1/n)          19.278   19.278   19.280
 (dLV/dLP)t      -1.00007 -1.00007 -1.00002
 (dLV/dLT)p        1.0019   1.0019   1.0005
 Cp, KJ/(KG)(K)    2.0635   2.0633   2.0284
 GAMMAs            1.2654   1.2654   1.2703
 SON VEL,M/SEC     1026.6   1026.2    965.7
 MACH NUMBER        0.000    0.077    1.000

 PERFORMANCE PARAMETERS

 Ae/At                      7.6749   1.0000
 CSTAR, M/SEC               1379.6   1379.6
 CF                         0.0572   0.7000
 Ivac, M/SEC               10627.6   1726.0
 Isp, M/SEC                   78.9    965.7


 MOLE FRACTIONS

 *CO              0.50451  0.50447  0.49732
 *CO2             0.04869  0.04873  0.05593
 *H               0.00026  0.00026  0.00005
 *H2              0.31505  0.31510  0.32242
 H2O              0.13148  0.13144  0.12427
 *OH              0.00001  0.00001  0.00000

  * THERMODYNAMIC PROPERTIES FITTED TO 20000.K

    PRODUCTS WHICH WERE CONSIDERED BUT WHOSE MOLE FRACTIONS
    WERE LESS THAN 5.000000E-06 FOR ALL ASSIGNED CONDITIONS

 *C              *CH             CH2             CH3             CH2OH          
 CH3O            CH4             CH3OH           CH3OOH          COOH           
 *C2             C2H             C2H2,acetylene  C2H2,vinylidene CH2CO,ketene   
 O(CH)2O         HO(CO)2OH       C2H3,vinyl      CH3CO,acetyl    C2H4           
 C2H4O,ethylen-o CH3CHO,ethanal  CH3COOH         OHCH2COOH       C2H5           
 C2H6            C2H5OH          CH3OCH3         CH3O2CH3        C2O            
 *C3             C3H3,1-propynl  C3H3,2-propynl  C3H4,allene     C3H4,propyne   
 C3H4,cyclo-     C3H5,allyl      C3H6,propylene  C3H6,cyclo-     C3H6O,propylox 
 C3H6O,acetone   C3H6O,propanal  C3H7,n-propyl   C3H7,i-propyl   C3H8           
 C3H8O,1propanol C3H8O,2propanol C3O2            *C4             C4H2,butadiyne 
 C4H4,1,3-cyclo- C4H6,butadiene  C4H6,1butyne    C4H6,2butyne    C4H6,cyclo-    
 C4H8,1-butene   C4H8,cis2-buten C4H8,tr2-butene C4H8,isobutene  C4H8,cyclo-    
 (CH3COOH)2      C4H9,n-butyl    C4H9,i-butyl    C4H9,s-butyl    C4H9,t-butyl   
 C4H10,n-butane  C4H10,isobutane *C5             C5H6,1,3cyclo-  C5H8,cyclo-    
 C5H10,1-pentene C5H10,cyclo-    C5H11,pentyl    C5H11,t-pentyl  C5H12,n-pentane
 C5H12,i-pentane CH3C(CH3)2CH3   C6H2            C6H5,phenyl     C6H5O,phenoxy  
 C6H6            C6H5OH,phenol   C6H10,cyclo-    C6H12,1-hexene  C6H12,cyclo-   
 C6H13,n-hexyl   C6H14,n-hexane  C7H7,benzyl     C7H8            C7H8O,cresol-mx
 C7H14,1-heptene C7H15,n-heptyl  C7H16,n-heptane C7H16,2-methylh C8H8,styrene   
 C8H10,ethylbenz C8H16,1-octene  C8H17,n-octyl   C8H18,n-octane  C8H18,isooctane
 C9H19,n-nonyl   C10H8,naphthale C10H21,n-decyl  C12H9,o-bipheny C12H10,biphenyl
 HCO             HCCO            HO2             HCHO,formaldehy HCOOH          
 H2O2            (HCOOH)2        *O              *O2             O3             
 C(gr)           H2O(cr)         H2O(L)         

 NOTE. WEIGHT FRACTION OF FUEL IN TOTAL FUELS AND OF OXIDANT IN TOTAL OXIDANTS






 WARNING!!  ASSIGNED pip =   0.00000 IS NOT PERMITTED
 TO BE LESS THAN  Pinj/Pc =  1.00748. POINT OMITTED (ROCKET)





              THEORETICAL ROCKET PERFORMANCE ASSUMING EQUILIBRIUM

            COMPOSITION DURING EXPANSION FROM FINITE AREA COMBUSTOR

 Pin =    68.5 PSIA
 Ac/At =  7.6749      Pinj/Pinf =  1.003719
 CASE =                

             REACTANT                    WT FRACTION      ENERGY      TEMP
                                          (SEE NOTE)     KJ/KG-MOL      K  
 OXIDANT     O2                           0.9807872      2545.428    384.000
 OXIDANT     H2O                          0.0115277   -238921.312    384.000
 OXIDANT     CO2                          0.0076851   -390162.812    384.000
 FUEL        PMMA                         1.0000000   -442140.000    293.150

 O/F=    0.74497  %FUEL= 57.307710  R,EQ.RATIO= 2.117690  PHI,EQ.RATIO= 2.624648

                 INJECTOR  COMB END  THROAT
 Pinj/P            1.0000   1.0075   1.8214
 P, BAR            4.7200   4.6850   2.5914
 T, K             1930.92  1929.41  1702.54
 RHO, KG/CU M    5.6677-1 5.6301-1 3.5296-1
 H, KJ/KG        -2591.92 -2595.03 -3058.25
 U, KJ/KG        -3424.71 -3427.16 -3792.46
 G, KJ/KG        -26120.7 -26108.4 -23806.9
 S, KJ/(KG)(K)    12.1852  12.1868  12.1868

 M, (1/n)          19.278   19.278   19.280
 (dLV/dLP)t      -1.00007 -1.00007 -1.00002
 (dLV/dLT)p        1.0019   1.0019   1.0005
 Cp, KJ/(KG)(K)    2.0635   2.0633   2.0284
 GAMMAs            1.2654   1.2654   1.2703
 SON VEL,M/SEC     1026.6   1026.2    965.7
 MACH NUMBER        0.000    0.077    1.000

 PERFORMANCE PARAMETERS

 Ae/At                      7.6749   1.0000
 CSTAR, M/SEC               1379.6   1379.6
 CF                         0.0572   0.7000
 Ivac, M/SEC               10627.6   1726.0
 Isp, M/SEC                   78.9    965.7


 MOLE FRACTIONS

 *CO              0.50451  0.50447  0.49732
 *CO2             0.04869  0.04873  0.05593
 *H               0.00026  0.00026  0.00005
 *H2              0.31505  0.31510  0.32242
 H2O              0.13148  0.13144  0.12427
 *OH              0.00001  0.00001  0.00000

  * THERMODYNAMIC PROPERTIES FITTED TO 20000.K

    PRODUCTS WHICH WERE CONSIDERED BUT WHOSE MOLE FRACTIONS
    WERE LESS THAN 5.000000E-06 FOR ALL ASSIGNED CONDITIONS

 *C              *CH             CH2             CH3             CH2OH          
 CH3O            CH4             CH3OH           CH3OOH          COOH           
 *C2             C2H             C2H2,acetylene  C2H2,vinylidene CH2CO,ketene   
 O(CH)2O         HO(CO)2OH       C2H3,vinyl      CH3CO,acetyl    C2H4           
 C2H4O,ethylen-o CH3CHO,ethanal  CH3COOH         OHCH2COOH       C2H5           
 C2H6            C2H5OH          CH3OCH3         CH3O2CH3        C2O            
 *C3             C3H3,1-propynl  C3H3,2-propynl  C3H4,allene     C3H4,propyne   
 C3H4,cyclo-     C3H5,allyl      C3H6,propylene  C3H6,cyclo-     C3H6O,propylox 
 C3H6O,acetone   C3H6O,propanal  C3H7,n-propyl   C3H7,i-propyl   C3H8           
 C3H8O,1propanol C3H8O,2propanol C3O2            *C4             C4H2,butadiyne 
 C4H4,1,3-cyclo- C4H6,butadiene  C4H6,1butyne    C4H6,2butyne    C4H6,cyclo-    
 C4H8,1-butene   C4H8,cis2-buten C4H8,tr2-butene C4H8,isobutene  C4H8,cyclo-    
 (CH3COOH)2      C4H9,n-butyl    C4H9,i-butyl    C4H9,s-butyl    C4H9,t-butyl   
 C4H10,n-butane  C4H10,isobutane *C5             C5H6,1,3cyclo-  C5H8,cyclo-    
 C5H10,1-pentene C5H10,cyclo-    C5H11,pentyl    C5H11,t-pentyl  C5H12,n-pentane
 C5H12,i-pentane CH3C(CH3)2CH3   C6H2            C6H5,phenyl     C6H5O,phenoxy  
 C6H6            C6H5OH,phenol   C6H10,cyclo-    C6H12,1-hexene  C6H12,cyclo-   
 C6H13,n-hexyl   C6H14,n-hexane  C7H7,benzyl     C7H8            C7H8O,cresol-mx
 C7H14,1-heptene C7H15,n-heptyl  C7H16,n-heptane C7H16,2-methylh C8H8,styrene   
 C8H10,ethylbenz C8H16,1-octene  C8H17,n-octyl   C8H18,n-octane  C8H18,isooctane
 C9H19,n-nonyl   C10H8,naphthale C10H21,n-decyl  C12H9,o-bipheny C12H10,biphenyl
 HCO             HCCO            HO2             HCHO,formaldehy HCOOH          
 H2O2            (HCOOH)2        *O              *O2             O3             
 C(gr)           H2O(cr)         H2O(L)         

 NOTE. WEIGHT FRACTION OF FUEL IN TOTAL FUELS AND OF OXIDANT IN TOTAL OXIDANTS






 WARNING!!  ASSIGNED pip =   0.00000 IS NOT PERMITTED
 TO BE LESS THAN  Pinj/Pc =  1.00748. POINT OMITTED (ROCKET)





              THEORETICAL ROCKET PERFORMANCE ASSUMING EQUILIBRIUM

            COMPOSITION DURING EXPANSION FROM FINITE AREA COMBUSTOR

 Pin =    68.5 PSIA
 Ac/At =  7.6749      Pinj/Pinf =  1.003719
 CASE =                

             REACTANT                    WT FRACTION      ENERGY      TEMP
                                          (SEE NOTE)     KJ/KG-MOL      K  
 OXIDANT     O2                           0.9807872      2545.428    384.000
 OXIDANT     H2O                          0.0115277   -238921.312    384.000
 OXIDANT     CO2                          0.0076851   -390162.812    384.000
 FUEL        PMMA                         1.0000000   -442140.000    293.150

 O/F=    0.74497  %FUEL= 57.307710  R,EQ.RATIO= 2.117690  PHI,EQ.RATIO= 2.624648

                 INJECTOR  COMB END  THROAT
 Pinj/P            1.0000   1.0075   1.8214
 P, BAR            4.7200   4.6850   2.5914
 T, K             1930.92  1929.41  1702.54
 RHO, KG/CU M    5.6677-1 5.6301-1 3.5296-1
 H, KJ/KG        -2591.92 -2595.03 -3058.25
 U, KJ/KG        -3424.71 -3427.16 -3792.46
 G, KJ/KG        -26120.7 -26108.4 -23806.9
 S, KJ/(KG)(K)    12.1852  12.1868  12.1868

 M, (1/n)          19.278   19.278   19.280
 (dLV/dLP)t      -1.00007 -1.00007 -1.00002
 (dLV/dLT)p        1.0019   1.0019   1.0005
 Cp, KJ/(KG)(K)    2.0635   2.0633   2.0284
 GAMMAs            1.2654   1.2654   1.2703
 SON VEL,M/SEC     1026.6   1026.2    965.7
 MACH NUMBER        0.000    0.077    1.000

 PERFORMANCE PARAMETERS

 Ae/At                      7.6749   1.0000
 CSTAR, M/SEC               1379.6   1379.6
 CF                         0.0572   0.7000
 Ivac, M/SEC               10627.6   1726.0
 Isp, M/SEC                   78.9    965.7


 MOLE FRACTIONS

 *CO              0.50451  0.50447  0.49732
 *CO2             0.04869  0.04873  0.05593
 *H               0.00026  0.00026  0.00005
 *H2              0.31505  0.31510  0.32242
 H2O              0.13148  0.13144  0.12427
 *OH              0.00001  0.00001  0.00000

  * THERMODYNAMIC PROPERTIES FITTED TO 20000.K

    PRODUCTS WHICH WERE CONSIDERED BUT WHOSE MOLE FRACTIONS
    WERE LESS THAN 5.000000E-06 FOR ALL ASSIGNED CONDITIONS

 *C              *CH             CH2             CH3             CH2OH          
 CH3O            CH4             CH3OH           CH3OOH          COOH           
 *C2             C2H             C2H2,acetylene  C2H2,vinylidene CH2CO,ketene   
 O(CH)2O         HO(CO)2OH       C2H3,vinyl      CH3CO,acetyl    C2H4           
 C2H4O,ethylen-o CH3CHO,ethanal  CH3COOH         OHCH2COOH       C2H5           
 C2H6            C2H5OH          CH3OCH3         CH3O2CH3        C2O            
 *C3             C3H3,1-propynl  C3H3,2-propynl  C3H4,allene     C3H4,propyne   
 C3H4,cyclo-     C3H5,allyl      C3H6,propylene  C3H6,cyclo-     C3H6O,propylox 
 C3H6O,acetone   C3H6O,propanal  C3H7,n-propyl   C3H7,i-propyl   C3H8           
 C3H8O,1propanol C3H8O,2propanol C3O2            *C4             C4H2,butadiyne 
 C4H4,1,3-cyclo- C4H6,butadiene  C4H6,1butyne    C4H6,2butyne    C4H6,cyclo-    
 C4H8,1-butene   C4H8,cis2-buten C4H8,tr2-butene C4H8,isobutene  C4H8,cyclo-    
 (CH3COOH)2      C4H9,n-butyl    C4H9,i-butyl    C4H9,s-butyl    C4H9,t-butyl   
 C4H10,n-butane  C4H10,isobutane *C5             C5H6,1,3cyclo-  C5H8,cyclo-    
 C5H10,1-pentene C5H10,cyclo-    C5H11,pentyl    C5H11,t-pentyl  C5H12,n-pentane
 C5H12,i-pentane CH3C(CH3)2CH3   C6H2            C6H5,phenyl     C6H5O,phenoxy  
 C6H6            C6H5OH,phenol   C6H10,cyclo-    C6H12,1-hexene  C6H12,cyclo-   
 C6H13,n-hexyl   C6H14,n-hexane  C7H7,benzyl     C7H8            C7H8O,cresol-mx
 C7H14,1-heptene C7H15,n-heptyl  C7H16,n-heptane C7H16,2-methylh C8H8,styrene   
 C8H10,ethylbenz C8H16,1-octene  C8H17,n-octyl   C8H18,n-octane  C8H18,isooctane
 C9H19,n-nonyl   C10H8,naphthale C10H21,n-decyl  C12H9,o-bipheny C12H10,biphenyl
 HCO             HCCO            HO2             HCHO,formaldehy HCOOH          
 H2O2            (HCOOH)2        *O              *O2             O3             
 C(gr)           H2O(cr)         H2O(L)         

 NOTE. WEIGHT FRACTION OF FUEL IN TOTAL FUELS AND OF OXIDANT IN TOTAL OXIDANTS






 WARNING!!  ASSIGNED pip =   0.00000 IS NOT PERMITTED
 TO BE LESS THAN  Pinj/Pc =  1.00748. POINT OMITTED (ROCKET)





              THEORETICAL ROCKET PERFORMANCE ASSUMING EQUILIBRIUM

            COMPOSITION DURING EXPANSION FROM FINITE AREA COMBUSTOR

 Pin =    68.5 PSIA
 Ac/At =  7.6749      Pinj/Pinf =  1.003719
 CASE =                

             REACTANT                    WT FRACTION      ENERGY      TEMP
                                          (SEE NOTE)     KJ/KG-MOL      K  
 OXIDANT     O2                           0.9807872      2545.428    384.000
 OXIDANT     H2O                          0.0115277   -238921.312    384.000
 OXIDANT     CO2                          0.0076851   -390162.812    384.000
 FUEL        PMMA                         1.0000000   -442140.000    293.150

 O/F=    0.74497  %FUEL= 57.307710  R,EQ.RATIO= 2.117690  PHI,EQ.RATIO= 2.624648

                 INJECTOR  COMB END  THROAT
 Pinj/P            1.0000   1.0075   1.8214
 P, BAR            4.7200   4.6850   2.5914
 T, K             1930.92  1929.41  1702.54
 RHO, KG/CU M    5.6677-1 5.6301-1 3.5296-1
 H, KJ/KG        -2591.92 -2595.03 -3058.25
 U, KJ/KG        -3424.71 -3427.16 -3792.46
 G, KJ/KG        -26120.7 -26108.4 -23806.9
 S, KJ/(KG)(K)    12.1852  12.1868  12.1868

 M, (1/n)          19.278   19.278   19.280
 (dLV/dLP)t      -1.00007 -1.00007 -1.00002
 (dLV/dLT)p        1.0019   1.0019   1.0005
 Cp, KJ/(KG)(K)    2.0635   2.0633   2.0284
 GAMMAs            1.2654   1.2654   1.2703
 SON VEL,M/SEC     1026.6   1026.2    965.7
 MACH NUMBER        0.000    0.077    1.000

 PERFORMANCE PARAMETERS

 Ae/At                      7.6749   1.0000
 CSTAR, M/SEC               1379.6   1379.6
 CF                         0.0572   0.7000
 Ivac, M/SEC               10627.6   1726.0
 Isp, M/SEC                   78.9    965.7


 MOLE FRACTIONS

 *CO              0.50451  0.50447  0.49732
 *CO2             0.04869  0.04873  0.05593
 *H               0.00026  0.00026  0.00005
 *H2              0.31505  0.31510  0.32242
 H2O              0.13148  0.13144  0.12427
 *OH              0.00001  0.00001  0.00000

  * THERMODYNAMIC PROPERTIES FITTED TO 20000.K

    PRODUCTS WHICH WERE CONSIDERED BUT WHOSE MOLE FRACTIONS
    WERE LESS THAN 5.000000E-06 FOR ALL ASSIGNED CONDITIONS

 *C              *CH             CH2             CH3             CH2OH          
 CH3O            CH4             CH3OH           CH3OOH          COOH           
 *C2             C2H             C2H2,acetylene  C2H2,vinylidene CH2CO,ketene   
 O(CH)2O         HO(CO)2OH       C2H3,vinyl      CH3CO,acetyl    C2H4           
 C2H4O,ethylen-o CH3CHO,ethanal  CH3COOH         OHCH2COOH       C2H5           
 C2H6            C2H5OH          CH3OCH3         CH3O2CH3        C2O            
 *C3             C3H3,1-propynl  C3H3,2-propynl  C3H4,allene     C3H4,propyne   
 C3H4,cyclo-     C3H5,allyl      C3H6,propylene  C3H6,cyclo-     C3H6O,propylox 
 C3H6O,acetone   C3H6O,propanal  C3H7,n-propyl   C3H7,i-propyl   C3H8           
 C3H8O,1propanol C3H8O,2propanol C3O2            *C4             C4H2,butadiyne 
 C4H4,1,3-cyclo- C4H6,butadiene  C4H6,1butyne    C4H6,2butyne    C4H6,cyclo-    
 C4H8,1-butene   C4H8,cis2-buten C4H8,tr2-butene C4H8,isobutene  C4H8,cyclo-    
 (CH3COOH)2      C4H9,n-butyl    C4H9,i-butyl    C4H9,s-butyl    C4H9,t-butyl   
 C4H10,n-butane  C4H10,isobutane *C5             C5H6,1,3cyclo-  C5H8,cyclo-    
 C5H10,1-pentene C5H10,cyclo-    C5H11,pentyl    C5H11,t-pentyl  C5H12,n-pentane
 C5H12,i-pentane CH3C(CH3)2CH3   C6H2            C6H5,phenyl     C6H5O,phenoxy  
 C6H6            C6H5OH,phenol   C6H10,cyclo-    C6H12,1-hexene  C6H12,cyclo-   
 C6H13,n-hexyl   C6H14,n-hexane  C7H7,benzyl     C7H8            C7H8O,cresol-mx
 C7H14,1-heptene C7H15,n-heptyl  C7H16,n-heptane C7H16,2-methylh C8H8,styrene   
 C8H10,ethylbenz C8H16,1-octene  C8H17,n-octyl   C8H18,n-octane  C8H18,isooctane
 C9H19,n-nonyl   C10H8,naphthale C10H21,n-decyl  C12H9,o-bipheny C12H10,biphenyl
 HCO             HCCO            HO2             HCHO,formaldehy HCOOH          
 H2O2            (HCOOH)2        *O              *O2             O3             
 C(gr)           H2O(cr)         H2O(L)         

 NOTE. WEIGHT FRACTION OF FUEL IN TOTAL FUELS AND OF OXIDANT IN TOTAL OXIDANTS






 WARNING!!  ASSIGNED pip =   0.00000 IS NOT PERMITTED
 TO BE LESS THAN  Pinj/Pc =  1.00748. POINT OMITTED (ROCKET)





              THEORETICAL ROCKET PERFORMANCE ASSUMING EQUILIBRIUM

            COMPOSITION DURING EXPANSION FROM FINITE AREA COMBUSTOR

 Pin =    68.5 PSIA
 Ac/At =  7.6749      Pinj/Pinf =  1.003719
 CASE =                

             REACTANT                    WT FRACTION      ENERGY      TEMP
                                          (SEE NOTE)     KJ/KG-MOL      K  
 OXIDANT     O2                           0.9807872      2545.428    384.000
 OXIDANT     H2O                          0.0115277   -238921.312    384.000
 OXIDANT     CO2                          0.0076851   -390162.812    384.000
 FUEL        PMMA                         1.0000000   -442140.000    293.150

 O/F=    0.74497  %FUEL= 57.307710  R,EQ.RATIO= 2.117690  PHI,EQ.RATIO= 2.624648

                 INJECTOR  COMB END  THROAT
 Pinj/P            1.0000   1.0075   1.8214
 P, BAR            4.7200   4.6850   2.5914
 T, K             1930.92  1929.41  1702.54
 RHO, KG/CU M    5.6677-1 5.6301-1 3.5296-1
 H, KJ/KG        -2591.92 -2595.03 -3058.25
 U, KJ/KG        -3424.71 -3427.16 -3792.46
 G, KJ/KG        -26120.7 -26108.4 -23806.9
 S, KJ/(KG)(K)    12.1852  12.1868  12.1868

 M, (1/n)          19.278   19.278   19.280
 (dLV/dLP)t      -1.00007 -1.00007 -1.00002
 (dLV/dLT)p        1.0019   1.0019   1.0005
 Cp, KJ/(KG)(K)    2.0635   2.0633   2.0284
 GAMMAs            1.2654   1.2654   1.2703
 SON VEL,M/SEC     1026.6   1026.2    965.7
 MACH NUMBER        0.000    0.077    1.000

 PERFORMANCE PARAMETERS

 Ae/At                      7.6749   1.0000
 CSTAR, M/SEC               1379.6   1379.6
 CF                         0.0572   0.7000
 Ivac, M/SEC               10627.6   1726.0
 Isp, M/SEC                   78.9    965.7


 MOLE FRACTIONS

 *CO              0.50451  0.50447  0.49732
 *CO2             0.04869  0.04873  0.05593
 *H               0.00026  0.00026  0.00005
 *H2              0.31505  0.31510  0.32242
 H2O              0.13148  0.13144  0.12427
 *OH              0.00001  0.00001  0.00000

  * THERMODYNAMIC PROPERTIES FITTED TO 20000.K

    PRODUCTS WHICH WERE CONSIDERED BUT WHOSE MOLE FRACTIONS
    WERE LESS THAN 5.000000E-06 FOR ALL ASSIGNED CONDITIONS

 *C              *CH             CH2             CH3             CH2OH          
 CH3O            CH4             CH3OH           CH3OOH          COOH           
 *C2             C2H             C2H2,acetylene  C2H2,vinylidene CH2CO,ketene   
 O(CH)2O         HO(CO)2OH       C2H3,vinyl      CH3CO,acetyl    C2H4           
 C2H4O,ethylen-o CH3CHO,ethanal  CH3COOH         OHCH2COOH       C2H5           
 C2H6            C2H5OH          CH3OCH3         CH3O2CH3        C2O            
 *C3             C3H3,1-propynl  C3H3,2-propynl  C3H4,allene     C3H4,propyne   
 C3H4,cyclo-     C3H5,allyl      C3H6,propylene  C3H6,cyclo-     C3H6O,propylox 
 C3H6O,acetone   C3H6O,propanal  C3H7,n-propyl   C3H7,i-propyl   C3H8           
 C3H8O,1propanol C3H8O,2propanol C3O2            *C4             C4H2,butadiyne 
 C4H4,1,3-cyclo- C4H6,butadiene  C4H6,1butyne    C4H6,2butyne    C4H6,cyclo-    
 C4H8,1-butene   C4H8,cis2-buten C4H8,tr2-butene C4H8,isobutene  C4H8,cyclo-    
 (CH3COOH)2      C4H9,n-butyl    C4H9,i-butyl    C4H9,s-butyl    C4H9,t-butyl   
 C4H10,n-butane  C4H10,isobutane *C5             C5H6,1,3cyclo-  C5H8,cyclo-    
 C5H10,1-pentene C5H10,cyclo-    C5H11,pentyl    C5H11,t-pentyl  C5H12,n-pentane
 C5H12,i-pentane CH3C(CH3)2CH3   C6H2            C6H5,phenyl     C6H5O,phenoxy  
 C6H6            C6H5OH,phenol   C6H10,cyclo-    C6H12,1-hexene  C6H12,cyclo-   
 C6H13,n-hexyl   C6H14,n-hexane  C7H7,benzyl     C7H8            C7H8O,cresol-mx
 C7H14,1-heptene C7H15,n-heptyl  C7H16,n-heptane C7H16,2-methylh C8H8,styrene   
 C8H10,ethylbenz C8H16,1-octene  C8H17,n-octyl   C8H18,n-octane  C8H18,isooctane
 C9H19,n-nonyl   C10H8,naphthale C10H21,n-decyl  C12H9,o-bipheny C12H10,biphenyl
 HCO             HCCO            HO2             HCHO,formaldehy HCOOH          
 H2O2            (HCOOH)2        *O              *O2             O3             
 C(gr)           H2O(cr)         H2O(L)         

 NOTE. WEIGHT FRACTION OF FUEL IN TOTAL FUELS AND OF OXIDANT IN TOTAL OXIDANTS






 WARNING!!  ASSIGNED pip =   0.00000 IS NOT PERMITTED
 TO BE LESS THAN  Pinj/Pc =  1.00748. POINT OMITTED (ROCKET)





              THEORETICAL ROCKET PERFORMANCE ASSUMING EQUILIBRIUM

            COMPOSITION DURING EXPANSION FROM FINITE AREA COMBUSTOR

 Pin =    68.5 PSIA
 Ac/At =  7.6749      Pinj/Pinf =  1.003719
 CASE =                

             REACTANT                    WT FRACTION      ENERGY      TEMP
                                          (SEE NOTE)     KJ/KG-MOL      K  
 OXIDANT     O2                           0.9807872      2545.428    384.000
 OXIDANT     H2O                          0.0115277   -238921.312    384.000
 OXIDANT     CO2                          0.0076851   -390162.812    384.000
 FUEL        PMMA                         1.0000000   -442140.000    293.150

 O/F=    0.74497  %FUEL= 57.307710  R,EQ.RATIO= 2.117690  PHI,EQ.RATIO= 2.624648

                 INJECTOR  COMB END  THROAT
 Pinj/P            1.0000   1.0075   1.8214
 P, BAR            4.7200   4.6850   2.5914
 T, K             1930.92  1929.41  1702.54
 RHO, KG/CU M    5.6677-1 5.6301-1 3.5296-1
 H, KJ/KG        -2591.92 -2595.03 -3058.25
 U, KJ/KG        -3424.71 -3427.16 -3792.46
 G, KJ/KG        -26120.7 -26108.4 -23806.9
 S, KJ/(KG)(K)    12.1852  12.1868  12.1868

 M, (1/n)          19.278   19.278   19.280
 (dLV/dLP)t      -1.00007 -1.00007 -1.00002
 (dLV/dLT)p        1.0019   1.0019   1.0005
 Cp, KJ/(KG)(K)    2.0635   2.0633   2.0284
 GAMMAs            1.2654   1.2654   1.2703
 SON VEL,M/SEC     1026.6   1026.2    965.7
 MACH NUMBER        0.000    0.077    1.000

 PERFORMANCE PARAMETERS

 Ae/At                      7.6749   1.0000
 CSTAR, M/SEC               1379.6   1379.6
 CF                         0.0572   0.7000
 Ivac, M/SEC               10627.6   1726.0
 Isp, M/SEC                   78.9    965.7


 MOLE FRACTIONS

 *CO              0.50451  0.50447  0.49732
 *CO2             0.04869  0.04873  0.05593
 *H               0.00026  0.00026  0.00005
 *H2              0.31505  0.31510  0.32242
 H2O              0.13148  0.13144  0.12427
 *OH              0.00001  0.00001  0.00000

  * THERMODYNAMIC PROPERTIES FITTED TO 20000.K

    PRODUCTS WHICH WERE CONSIDERED BUT WHOSE MOLE FRACTIONS
    WERE LESS THAN 5.000000E-06 FOR ALL ASSIGNED CONDITIONS

 *C              *CH             CH2             CH3             CH2OH          
 CH3O            CH4             CH3OH           CH3OOH          COOH           
 *C2             C2H             C2H2,acetylene  C2H2,vinylidene CH2CO,ketene   
 O(CH)2O         HO(CO)2OH       C2H3,vinyl      CH3CO,acetyl    C2H4           
 C2H4O,ethylen-o CH3CHO,ethanal  CH3COOH         OHCH2COOH       C2H5           
 C2H6            C2H5OH          CH3OCH3         CH3O2CH3        C2O            
 *C3             C3H3,1-propynl  C3H3,2-propynl  C3H4,allene     C3H4,propyne   
 C3H4,cyclo-     C3H5,allyl      C3H6,propylene  C3H6,cyclo-     C3H6O,propylox 
 C3H6O,acetone   C3H6O,propanal  C3H7,n-propyl   C3H7,i-propyl   C3H8           
 C3H8O,1propanol C3H8O,2propanol C3O2            *C4             C4H2,butadiyne 
 C4H4,1,3-cyclo- C4H6,butadiene  C4H6,1butyne    C4H6,2butyne    C4H6,cyclo-    
 C4H8,1-butene   C4H8,cis2-buten C4H8,tr2-butene C4H8,isobutene  C4H8,cyclo-    
 (CH3COOH)2      C4H9,n-butyl    C4H9,i-butyl    C4H9,s-butyl    C4H9,t-butyl   
 C4H10,n-butane  C4H10,isobutane *C5             C5H6,1,3cyclo-  C5H8,cyclo-    
 C5H10,1-pentene C5H10,cyclo-    C5H11,pentyl    C5H11,t-pentyl  C5H12,n-pentane
 C5H12,i-pentane CH3C(CH3)2CH3   C6H2            C6H5,phenyl     C6H5O,phenoxy  
 C6H6            C6H5OH,phenol   C6H10,cyclo-    C6H12,1-hexene  C6H12,cyclo-   
 C6H13,n-hexyl   C6H14,n-hexane  C7H7,benzyl     C7H8            C7H8O,cresol-mx
 C7H14,1-heptene C7H15,n-heptyl  C7H16,n-heptane C7H16,2-methylh C8H8,styrene   
 C8H10,ethylbenz C8H16,1-octene  C8H17,n-octyl   C8H18,n-octane  C8H18,isooctane
 C9H19,n-nonyl   C10H8,naphthale C10H21,n-decyl  C12H9,o-bipheny C12H10,biphenyl
 HCO             HCCO            HO2             HCHO,formaldehy HCOOH          
 H2O2            (HCOOH)2        *O              *O2             O3             
 C(gr)           H2O(cr)         H2O(L)         

 NOTE. WEIGHT FRACTION OF FUEL IN TOTAL FUELS AND OF OXIDANT IN TOTAL OXIDANTS






 WARNING!!  ASSIGNED pip =   0.00000 IS NOT PERMITTED
 TO BE LESS THAN  Pinj/Pc =  1.00748. POINT OMITTED (ROCKET)





              THEORETICAL ROCKET PERFORMANCE ASSUMING EQUILIBRIUM

            COMPOSITION DURING EXPANSION FROM FINITE AREA COMBUSTOR

 Pin =    68.5 PSIA
 Ac/At =  7.6749      Pinj/Pinf =  1.003719
 CASE =                

             REACTANT                    WT FRACTION      ENERGY      TEMP
                                          (SEE NOTE)     KJ/KG-MOL      K  
 OXIDANT     O2                           0.9807872      2545.428    384.000
 OXIDANT     H2O                          0.0115277   -238921.312    384.000
 OXIDANT     CO2                          0.0076851   -390162.812    384.000
 FUEL        PMMA                         1.0000000   -442140.000    293.150

 O/F=    0.74497  %FUEL= 57.307710  R,EQ.RATIO= 2.117690  PHI,EQ.RATIO= 2.624648

                 INJECTOR  COMB END  THROAT
 Pinj/P            1.0000   1.0075   1.8214
 P, BAR            4.7200   4.6850   2.5914
 T, K             1930.92  1929.41  1702.54
 RHO, KG/CU M    5.6677-1 5.6301-1 3.5296-1
 H, KJ/KG        -2591.92 -2595.03 -3058.25
 U, KJ/KG        -3424.71 -3427.16 -3792.46
 G, KJ/KG        -26120.7 -26108.4 -23806.9
 S, KJ/(KG)(K)    12.1852  12.1868  12.1868

 M, (1/n)          19.278   19.278   19.280
 (dLV/dLP)t      -1.00007 -1.00007 -1.00002
 (dLV/dLT)p        1.0019   1.0019   1.0005
 Cp, KJ/(KG)(K)    2.0635   2.0633   2.0284
 GAMMAs            1.2654   1.2654   1.2703
 SON VEL,M/SEC     1026.6   1026.2    965.7
 MACH NUMBER        0.000    0.077    1.000

 PERFORMANCE PARAMETERS

 Ae/At                      7.6749   1.0000
 CSTAR, M/SEC               1379.6   1379.6
 CF                         0.0572   0.7000
 Ivac, M/SEC               10627.6   1726.0
 Isp, M/SEC                   78.9    965.7


 MOLE FRACTIONS

 *CO              0.50451  0.50447  0.49732
 *CO2             0.04869  0.04873  0.05593
 *H               0.00026  0.00026  0.00005
 *H2              0.31505  0.31510  0.32242
 H2O              0.13148  0.13144  0.12427
 *OH              0.00001  0.00001  0.00000

  * THERMODYNAMIC PROPERTIES FITTED TO 20000.K

    PRODUCTS WHICH WERE CONSIDERED BUT WHOSE MOLE FRACTIONS
    WERE LESS THAN 5.000000E-06 FOR ALL ASSIGNED CONDITIONS

 *C              *CH             CH2             CH3             CH2OH          
 CH3O            CH4             CH3OH           CH3OOH          COOH           
 *C2             C2H             C2H2,acetylene  C2H2,vinylidene CH2CO,ketene   
 O(CH)2O         HO(CO)2OH       C2H3,vinyl      CH3CO,acetyl    C2H4           
 C2H4O,ethylen-o CH3CHO,ethanal  CH3COOH         OHCH2COOH       C2H5           
 C2H6            C2H5OH          CH3OCH3         CH3O2CH3        C2O            
 *C3             C3H3,1-propynl  C3H3,2-propynl  C3H4,allene     C3H4,propyne   
 C3H4,cyclo-     C3H5,allyl      C3H6,propylene  C3H6,cyclo-     C3H6O,propylox 
 C3H6O,acetone   C3H6O,propanal  C3H7,n-propyl   C3H7,i-propyl   C3H8           
 C3H8O,1propanol C3H8O,2propanol C3O2            *C4             C4H2,butadiyne 
 C4H4,1,3-cyclo- C4H6,butadiene  C4H6,1butyne    C4H6,2butyne    C4H6,cyclo-    
 C4H8,1-butene   C4H8,cis2-buten C4H8,tr2-butene C4H8,isobutene  C4H8,cyclo-    
 (CH3COOH)2      C4H9,n-butyl    C4H9,i-butyl    C4H9,s-butyl    C4H9,t-butyl   
 C4H10,n-butane  C4H10,isobutane *C5             C5H6,1,3cyclo-  C5H8,cyclo-    
 C5H10,1-pentene C5H10,cyclo-    C5H11,pentyl    C5H11,t-pentyl  C5H12,n-pentane
 C5H12,i-pentane CH3C(CH3)2CH3   C6H2            C6H5,phenyl     C6H5O,phenoxy  
 C6H6            C6H5OH,phenol   C6H10,cyclo-    C6H12,1-hexene  C6H12,cyclo-   
 C6H13,n-hexyl   C6H14,n-hexane  C7H7,benzyl     C7H8            C7H8O,cresol-mx
 C7H14,1-heptene C7H15,n-heptyl  C7H16,n-heptane C7H16,2-methylh C8H8,styrene   
 C8H10,ethylbenz C8H16,1-octene  C8H17,n-octyl   C8H18,n-octane  C8H18,isooctane
 C9H19,n-nonyl   C10H8,naphthale C10H21,n-decyl  C12H9,o-bipheny C12H10,biphenyl
 HCO             HCCO            HO2             HCHO,formaldehy HCOOH          
 H2O2            (HCOOH)2        *O              *O2             O3             
 C(gr)           H2O(cr)         H2O(L)         

 NOTE. WEIGHT FRACTION OF FUEL IN TOTAL FUELS AND OF OXIDANT IN TOTAL OXIDANTS





   4    4    1252.158     -32.030      -9.814      -6.048





              THEORETICAL ROCKET PERFORMANCE ASSUMING EQUILIBRIUM

            COMPOSITION DURING EXPANSION FROM FINITE AREA COMBUSTOR

 Pin =    68.5 PSIA
 Ac/At =  7.6749      Pinj/Pinf =  1.003719
 CASE =                

             REACTANT                    WT FRACTION      ENERGY      TEMP
                                          (SEE NOTE)     KJ/KG-MOL      K  
 OXIDANT     O2                           0.9807872      2545.428    384.000
 OXIDANT     H2O                          0.0115277   -238921.312    384.000
 OXIDANT     CO2                          0.0076851   -390162.812    384.000
 FUEL        PMMA                         1.0000000   -442140.000    293.150

 O/F=    0.74497  %FUEL= 57.307710  R,EQ.RATIO= 2.117690  PHI,EQ.RATIO= 2.624648

                 INJECTOR  COMB END  THROAT     EXIT
 Pinj/P            1.0000   1.0075   1.8214   7.6749
 P, BAR            4.7200   4.6850   2.5914  0.61499
 T, K             1930.92  1929.41  1702.54  1252.16
 RHO, KG/CU M    5.6677-1 5.6301-1 3.5296-1 1.1390-1
 H, KJ/KG        -2591.92 -2595.03 -3058.25 -3967.47
 U, KJ/KG        -3424.71 -3427.16 -3792.46 -4507.43
 G, KJ/KG        -26120.7 -26108.4 -23806.9 -19227.3
 S, KJ/(KG)(K)    12.1852  12.1868  12.1868  12.1868

 M, (1/n)          19.278   19.278   19.280   19.281
 (dLV/dLP)t      -1.00007 -1.00007 -1.00002 -1.00005
 (dLV/dLT)p        1.0019   1.0019   1.0005   1.0006
 Cp, KJ/(KG)(K)    2.0635   2.0633   2.0284   2.0286
 GAMMAs            1.2654   1.2654   1.2703   1.2703
 SON VEL,M/SEC     1026.6   1026.2    965.7    828.2
 MACH NUMBER        0.000    0.077    1.000    2.003

 PERFORMANCE PARAMETERS

 Ae/At                      7.6749   1.0000   1.8043
 CSTAR, M/SEC               1379.6   1379.6   1379.6
 CF                         0.0572   0.7000   1.2023
 Ivac, M/SEC               10627.6   1726.0   1984.2
 Isp, M/SEC                   78.9    965.7   1658.6


 MOLE FRACTIONS

 CH4              0.00000  0.00000  0.00000  0.00001
 *CO              0.50451  0.50447  0.49732  0.47023
 *CO2             0.04869  0.04873  0.05593  0.08304
 *H               0.00026  0.00026  0.00005  0.00000
 *H2              0.31505  0.31510  0.32242  0.34953
 H2O              0.13148  0.13144  0.12427  0.09718
 *OH              0.00001  0.00001  0.00000  0.00000

  * THERMODYNAMIC PROPERTIES FITTED TO 20000.K

    PRODUCTS WHICH WERE CONSIDERED BUT WHOSE MOLE FRACTIONS
    WERE LESS THAN 5.000000E-06 FOR ALL ASSIGNED CONDITIONS

 *C              *CH             CH2             CH3             CH2OH          
 CH3O            CH3OH           CH3OOH          COOH            *C2            
 C2H             C2H2,acetylene  C2H2,vinylidene CH2CO,ketene    O(CH)2O        
 HO(CO)2OH       C2H3,vinyl      CH3CO,acetyl    C2H4            C2H4O,ethylen-o
 CH3CHO,ethanal  CH3COOH         OHCH2COOH       C2H5            C2H6           
 C2H5OH          CH3OCH3         CH3O2CH3        C2O             *C3            
 C3H3,1-propynl  C3H3,2-propynl  C3H4,allene     C3H4,propyne    C3H4,cyclo-    
 C3H5,allyl      C3H6,propylene  C3H6,cyclo-     C3H6O,propylox  C3H6O,acetone  
 C3H6O,propanal  C3H7,n-propyl   C3H7,i-propyl   C3H8            C3H8O,1propanol
 C3H8O,2propanol C3O2            *C4             C4H2,butadiyne  C4H4,1,3-cyclo-
 C4H6,butadiene  C4H6,1butyne    C4H6,2butyne    C4H6,cyclo-     C4H8,1-butene  
 C4H8,cis2-buten C4H8,tr2-butene C4H8,isobutene  C4H8,cyclo-     (CH3COOH)2     
 C4H9,n-butyl    C4H9,i-butyl    C4H9,s-butyl    C4H9,t-butyl    C4H10,n-butane 
 C4H10,isobutane *C5             C5H6,1,3cyclo-  C5H8,cyclo-     C5H10,1-pentene
 C5H10,cyclo-    C5H11,pentyl    C5H11,t-pentyl  C5H12,n-pentane C5H12,i-pentane
 CH3C(CH3)2CH3   C6H2            C6H5,phenyl     C6H5O,phenoxy   C6H6           
 C6H5OH,phenol   C6H10,cyclo-    C6H12,1-hexene  C6H12,cyclo-    C6H13,n-hexyl  
 C6H14,n-hexane  C7H7,benzyl     C7H8            C7H8O,cresol-mx C7H14,1-heptene
 C7H15,n-heptyl  C7H16,n-heptane C7H16,2-methylh C8H8,styrene    C8H10,ethylbenz
 C8H16,1-octene  C8H17,n-octyl   C8H18,n-octane  C8H18,isooctane C9H19,n-nonyl  
 C10H8,naphthale C10H21,n-decyl  C12H9,o-bipheny C12H10,biphenyl HCO            
 HCCO            HO2             HCHO,formaldehy HCOOH           H2O2           
 (HCOOH)2        *O              *O2             O3              C(gr)          
 H2O(cr)         H2O(L)         

 NOTE. WEIGHT FRACTION OF FUEL IN TOTAL FUELS AND OF OXIDANT IN TOTAL OXIDANTS



