
 *******************************************************************************

         NASA-GLENN CHEMICAL EQUILIBRIUM PROGRAM CEA2, MAY 21, 2004
                   BY  BONNIE MCBRIDE AND SANFORD GORDON
      REFS: NASA RP-1311, PART I, 1994 AND NASA RP-1311, PART II, 1996

 *******************************************************************************



<<<<<<< HEAD
 prob rocket fac p,bar=4.62,ac/at=7.64244556672,
 o/f=0.744799834863, pi/pe=1, eq
 react
 	oxid=O2  wt=0.98079900365	t,k=383.71
 	oxid=H2O wt=0.0115205978098	t,k=383.71
 	oxid=CO2 wt=0.00768039853988	t,k=383.71
 	fuel=PMMA  wt=100 t,k=293.15
 	h,kj/mol=-442.14  C 5 H 8 O 2
 end

 OPTIONS: TP=F  HP=F  SP=F  TV=F  UV=F  SV=F  DETN=F  SHOCK=F  REFL=F  INCD=F
 RKT=T  FROZ=F  EQL=T  IONS=F  SIUNIT=T  DEBUGF=F  SHKDBG=F  DETDBG=T  TRNSPT=F

 TRACE= 0.00E+00  S/R= 0.000000E+00  H/R= 0.000000E+00  U/R= 0.000000E+00

 Pc,BAR =     4.620000

 Pc/P =     1.0000

 SUBSONIC AREA RATIOS =

 SUPERSONIC AREA RATIOS =

 NFZ=  1  Mdot/Ac= 0.000000E+00  Ac/At= 7.642446E+00

    REACTANT          WT.FRAC   (ENERGY/R),K   TEMP,K  DENSITY
        EXPLODED FORMULA
 O: O2               0.980799   0.305098E+03   383.71  0.0000
          O  2.00000
 O: H2O              0.011521  -0.287367E+05   383.71  0.0000
          H  2.00000  O  1.00000
 O: CO2              0.007680  -0.469270E+05   383.71  0.0000
          C  1.00000  O  2.00000
 F: PMMA             1.000000  -0.531769E+05   293.15  0.0000
          C  5.00000  H  8.00000  O  2.00000

  SPECIES BEING CONSIDERED IN THIS SYSTEM
 (CONDENSED PHASE MAY HAVE NAME LISTED SEVERAL TIMES)
  LAST thermo.inp UPDATE:    9/09/04

  g 7/97  *C               tpis79  *CH              g 4/02  CH2            
  g 4/02  CH3              g11/00  CH2OH            g 7/00  CH3O           
  g 8/99  CH4              g 7/00  CH3OH            srd 01  CH3OOH         
  tpis79  *CO              g 9/99  *CO2             tpis91  COOH           
  tpis91  *C2              g 6/01  C2H              g 1/91  C2H2,acetylene 
  g 5/01  C2H2,vinylidene  g 4/02  CH2CO,ketene     g 3/02  O(CH)2O        
  srd 01  HO(CO)2OH        g 7/01  C2H3,vinyl       g 6/96  CH3CO,acetyl   
  g 1/00  C2H4             g 8/88  C2H4O,ethylen-o  g 8/88  CH3CHO,ethanal 
  g 6/00  CH3COOH          srd 01  OHCH2COOH        g 7/00  C2H5           
  g 7/00  C2H6             g 8/88  C2H5OH           g 7/00  CH3OCH3        
  srd 01  CH3O2CH3         g 8/00  C2O              tpis79  *C3            
  n 4/98  C3H3,1-propynl   n 4/98  C3H3,2-propynl   g 2/00  C3H4,allene    
  g 1/00  C3H4,propyne     g 5/90  C3H4,cyclo-      g 3/01  C3H5,allyl     
  g 2/00  C3H6,propylene   g 1/00  C3H6,cyclo-      g 6/01  C3H6O,propylox 
  g 6/97  C3H6O,acetone    g 1/02  C3H6O,propanal   g 7/01  C3H7,n-propyl  
  g 9/85  C3H7,i-propyl    g 2/00  C3H8             g 2/00  C3H8O,1propanol
  g 2/00  C3H8O,2propanol  g 7/88  C3O2             g tpis  *C4            
  g 7/01  C4H2,butadiyne   g 8/00  C4H4,1,3-cyclo-  n10/92  C4H6,butadiene 
  n10/93  C4H6,1butyne     n10/93  C4H6,2butyne     g 8/00  C4H6,cyclo-    
  n 4/88  C4H8,1-butene    n 4/88  C4H8,cis2-buten  n 4/88  C4H8,tr2-butene
  n 4/88  C4H8,isobutene   g 8/00  C4H8,cyclo-      g10/00  (CH3COOH)2     
  n10/84  C4H9,n-butyl     n10/84  C4H9,i-butyl     g 1/93  C4H9,s-butyl   
  g 1/93  C4H9,t-butyl     g12/00  C4H10,n-butane   g 8/00  C4H10,isobutane
  g 8/00  *C5              g 5/90  C5H6,1,3cyclo-   g 1/93  C5H8,cyclo-    
  n 4/87  C5H10,1-pentene  g 2/01  C5H10,cyclo-     n10/84  C5H11,pentyl   
  g 1/93  C5H11,t-pentyl   n10/85  C5H12,n-pentane  n10/85  C5H12,i-pentane
  n10/85  CH3C(CH3)2CH3    g 2/93  C6H2             g11/00  C6H5,phenyl    
  g 8/00  C6H5O,phenoxy    g 8/00  C6H6             g 8/00  C6H5OH,phenol  
  g 1/93  C6H10,cyclo-     n 4/87  C6H12,1-hexene   g 6/90  C6H12,cyclo-   
  n10/83  C6H13,n-hexyl    g 6/01  C6H14,n-hexane   g 7/01  C7H7,benzyl    
  g 1/93  C7H8             g12/00  C7H8O,cresol-mx  n 4/87  C7H14,1-heptene
  n10/83  C7H15,n-heptyl   n10/85  C7H16,n-heptane  n10/85  C7H16,2-methylh
  n 4/89  C8H8,styrene     n10/86  C8H10,ethylbenz  n 4/87  C8H16,1-octene 
  n10/83  C8H17,n-octyl    n 4/85  C8H18,n-octane   n 4/85  C8H18,isooctane
  n10/83  C9H19,n-nonyl    g 3/01  C10H8,naphthale  n10/83  C10H21,n-decyl 
  g 8/00  C12H9,o-bipheny  g 8/00  C12H10,biphenyl  g 6/97  *H             
  g 1/01  HCO              g 6/01  HCCO             g 4/02  HO2            
  tpis78  *H2              g 5/01  HCHO,formaldehy  g 6/01  HCOOH          
  g 8/89  H2O              g 6/99  H2O2             g 6/01  (HCOOH)2       
  g 5/97  *O               g 4/02  *OH              tpis89  *O2            
  g 8/01  O3               n 4/83  C(gr)            n 4/83  C(gr)          
  n 4/83  C(gr)            g11/99  H2O(cr)          g 8/01  H2O(L)         
  g 8/01  H2O(L)         

 O/F =   0.744800

                       EFFECTIVE FUEL     EFFECTIVE OXIDANT        MIXTURE
 ENTHALPY                  h(2)/R              h(1)/R               h0/R
 (KG-MOL)(K)/KG       -0.53115398E+03     -0.17214778E+02     -0.31176960E+03

 KG-FORM.WT./KG             bi(2)               bi(1)               b0i
  *O                   0.19976863E-01      0.62290761E-01      0.38039327E-01
  *H                   0.79907451E-01      0.12789807E-02      0.46343445E-01
  *C                   0.49942157E-01      0.17451683E-03      0.28697926E-01

 POINT ITN      T            O           H           C 
   1   21    1930.235     -23.893      -9.495      -9.732
   2    1    1930.209     -23.893      -9.511      -9.764
 Pinf/Pt = 1.811385
   3    4    1702.569     -25.847      -9.602      -8.924
 Pinf/Pt = 1.814646
   3    2    1701.918     -25.853      -9.603      -8.921
   4    2    1928.133     -23.909      -9.512      -9.758
   4    2    1928.777     -23.904      -9.511      -9.760
   4    1    1928.689     -23.905      -9.511      -9.760
   4    1    1928.686     -23.905      -9.511      -9.760
   2    1    1930.232     -23.893      -9.496      -9.735
 Pinf/Pt = 1.811408
   3    4    1702.568     -25.847      -9.588      -8.895
 Pinf/Pt = 1.814651
   3    2    1701.920     -25.853      -9.588      -8.892
   4    2    1928.155     -23.909      -9.497      -9.729
   4    2    1928.799     -23.904      -9.497      -9.731
   4    1    1928.711     -23.904      -9.497      -9.731
   4    1    1928.708     -23.904      -9.497      -9.731
 END OF CHAMBER ITERATIONS

 WARNING!!  ASSIGNED pip =   1.00000 IS NOT PERMITTED
 TO BE LESS THAN  Pinj/Pc =  1.00754. POINT OMITTED (ROCKET)





              THEORETICAL ROCKET PERFORMANCE ASSUMING EQUILIBRIUM

            COMPOSITION DURING EXPANSION FROM FINITE AREA COMBUSTOR

 Pin =    67.0 PSIA
 Ac/At =  7.6424      Pinj/Pinf =  1.003750
 CASE =                

             REACTANT                    WT FRACTION      ENERGY      TEMP
                                          (SEE NOTE)     KJ/KG-MOL      K  
 OXIDANT     O2                           0.9807990      2536.736    383.710
 OXIDANT     H2O                          0.0115206   -238931.210    383.710
 OXIDANT     CO2                          0.0076804   -390174.621    383.710
 FUEL        PMMA                         1.0000000   -442140.000    293.150

 O/F=    0.74480  %FUEL= 57.313165  R,EQ.RATIO= 2.118007  PHI,EQ.RATIO= 2.625202

                 INJECTOR  COMB END  THROAT
 Pinj/P            1.0000   1.0075   1.8215
 P, BAR            4.6200   4.5854   2.5364
 T, K             1930.23  1928.71  1701.92
 RHO, KG/CU M    5.5491-1 5.5119-1 3.4556-1
 H, KJ/KG        -2592.21 -2595.35 -3058.42
 U, KJ/KG        -3424.78 -3427.26 -3792.43
 G, KJ/KG        -26130.3 -26117.9 -23815.1
 S, KJ/(KG)(K)    12.1944  12.1960  12.1960

 M, (1/n)          19.277   19.277   19.279
 (dLV/dLP)t      -1.00007 -1.00007 -1.00002
 (dLV/dLT)p        1.0019   1.0019   1.0005
 Cp, KJ/(KG)(K)    2.0637   2.0634   2.0284
 GAMMAs            1.2654   1.2655   1.2703
 SON VEL,M/SEC     1026.4   1026.0    965.6
 MACH NUMBER        0.000    0.077    1.000

 PERFORMANCE PARAMETERS

 Ae/At                      7.6425  1.00000
 CSTAR, M/SEC               1379.4   1379.4
 CF                         0.0574   0.7000
 Ivac, M/SEC               10581.5   1725.8
 Isp, M/SEC                   79.2    965.6


 MOLE FRACTIONS

 *CO              0.50452  0.50449  0.49734
 *CO2             0.04867  0.04871  0.05592
 *H               0.00026  0.00026  0.00005
 *H2              0.31514  0.31519  0.32252
 H2O              0.13139  0.13135  0.12417
 *OH              0.00001  0.00001  0.00000

  * THERMODYNAMIC PROPERTIES FITTED TO 20000.K

    PRODUCTS WHICH WERE CONSIDERED BUT WHOSE MOLE FRACTIONS
    WERE LESS THAN 5.000000E-06 FOR ALL ASSIGNED CONDITIONS

 *C              *CH             CH2             CH3             CH2OH          
 CH3O            CH4             CH3OH           CH3OOH          COOH           
 *C2             C2H             C2H2,acetylene  C2H2,vinylidene CH2CO,ketene   
 O(CH)2O         HO(CO)2OH       C2H3,vinyl      CH3CO,acetyl    C2H4           
 C2H4O,ethylen-o CH3CHO,ethanal  CH3COOH         OHCH2COOH       C2H5           
 C2H6            C2H5OH          CH3OCH3         CH3O2CH3        C2O            
 *C3             C3H3,1-propynl  C3H3,2-propynl  C3H4,allene     C3H4,propyne   
 C3H4,cyclo-     C3H5,allyl      C3H6,propylene  C3H6,cyclo-     C3H6O,propylox 
 C3H6O,acetone   C3H6O,propanal  C3H7,n-propyl   C3H7,i-propyl   C3H8           
 C3H8O,1propanol C3H8O,2propanol C3O2            *C4             C4H2,butadiyne 
 C4H4,1,3-cyclo- C4H6,butadiene  C4H6,1butyne    C4H6,2butyne    C4H6,cyclo-    
 C4H8,1-butene   C4H8,cis2-buten C4H8,tr2-butene C4H8,isobutene  C4H8,cyclo-    
 (CH3COOH)2      C4H9,n-butyl    C4H9,i-butyl    C4H9,s-butyl    C4H9,t-butyl   
 C4H10,n-butane  C4H10,isobutane *C5             C5H6,1,3cyclo-  C5H8,cyclo-    
 C5H10,1-pentene C5H10,cyclo-    C5H11,pentyl    C5H11,t-pentyl  C5H12,n-pentane
 C5H12,i-pentane CH3C(CH3)2CH3   C6H2            C6H5,phenyl     C6H5O,phenoxy  
 C6H6            C6H5OH,phenol   C6H10,cyclo-    C6H12,1-hexene  C6H12,cyclo-   
 C6H13,n-hexyl   C6H14,n-hexane  C7H7,benzyl     C7H8            C7H8O,cresol-mx
 C7H14,1-heptene C7H15,n-heptyl  C7H16,n-heptane C7H16,2-methylh C8H8,styrene   
 C8H10,ethylbenz C8H16,1-octene  C8H17,n-octyl   C8H18,n-octane  C8H18,isooctane
 C9H19,n-nonyl   C10H8,naphthale C10H21,n-decyl  C12H9,o-bipheny C12H10,biphenyl
 HCO             HCCO            HO2             HCHO,formaldehy HCOOH          
 H2O2            (HCOOH)2        *O              *O2             O3             
 C(gr)           H2O(cr)         H2O(L)         

 NOTE. WEIGHT FRACTION OF FUEL IN TOTAL FUELS AND OF OXIDANT IN TOTAL OXIDANTS






 WARNING!!  ASSIGNED pip =   0.00000 IS NOT PERMITTED
 TO BE LESS THAN  Pinj/Pc =  1.00754. POINT OMITTED (ROCKET)





              THEORETICAL ROCKET PERFORMANCE ASSUMING EQUILIBRIUM

            COMPOSITION DURING EXPANSION FROM FINITE AREA COMBUSTOR

 Pin =    67.0 PSIA
 Ac/At =  7.6424      Pinj/Pinf =  1.003750
 CASE =                

             REACTANT                    WT FRACTION      ENERGY      TEMP
                                          (SEE NOTE)     KJ/KG-MOL      K  
 OXIDANT     O2                           0.9807990      2536.736    383.710
 OXIDANT     H2O                          0.0115206   -238931.210    383.710
 OXIDANT     CO2                          0.0076804   -390174.621    383.710
 FUEL        PMMA                         1.0000000   -442140.000    293.150

 O/F=    0.74480  %FUEL= 57.313165  R,EQ.RATIO= 2.118007  PHI,EQ.RATIO= 2.625202

                 INJECTOR  COMB END  THROAT
 Pinj/P            1.0000   1.0075   1.8215
 P, BAR            4.6200   4.5854   2.5364
 T, K             1930.23  1928.71  1701.92
 RHO, KG/CU M    5.5491-1 5.5119-1 3.4556-1
 H, KJ/KG        -2592.21 -2595.35 -3058.42
 U, KJ/KG        -3424.78 -3427.26 -3792.43
 G, KJ/KG        -26130.3 -26117.9 -23815.1
 S, KJ/(KG)(K)    12.1944  12.1960  12.1960

 M, (1/n)          19.277   19.277   19.279
 (dLV/dLP)t      -1.00007 -1.00007 -1.00002
 (dLV/dLT)p        1.0019   1.0019   1.0005
 Cp, KJ/(KG)(K)    2.0637   2.0634   2.0284
 GAMMAs            1.2654   1.2655   1.2703
 SON VEL,M/SEC     1026.4   1026.0    965.6
 MACH NUMBER        0.000    0.077    1.000

 PERFORMANCE PARAMETERS

 Ae/At                      7.6425  1.00000
 CSTAR, M/SEC               1379.4   1379.4
 CF                         0.0574   0.7000
 Ivac, M/SEC               10581.5   1725.8
 Isp, M/SEC                   79.2    965.6


 MOLE FRACTIONS

 *CO              0.50452  0.50449  0.49734
 *CO2             0.04867  0.04871  0.05592
 *H               0.00026  0.00026  0.00005
 *H2              0.31514  0.31519  0.32252
 H2O              0.13139  0.13135  0.12417
 *OH              0.00001  0.00001  0.00000

  * THERMODYNAMIC PROPERTIES FITTED TO 20000.K

    PRODUCTS WHICH WERE CONSIDERED BUT WHOSE MOLE FRACTIONS
    WERE LESS THAN 5.000000E-06 FOR ALL ASSIGNED CONDITIONS

 *C              *CH             CH2             CH3             CH2OH          
 CH3O            CH4             CH3OH           CH3OOH          COOH           
 *C2             C2H             C2H2,acetylene  C2H2,vinylidene CH2CO,ketene   
 O(CH)2O         HO(CO)2OH       C2H3,vinyl      CH3CO,acetyl    C2H4           
 C2H4O,ethylen-o CH3CHO,ethanal  CH3COOH         OHCH2COOH       C2H5           
 C2H6            C2H5OH          CH3OCH3         CH3O2CH3        C2O            
 *C3             C3H3,1-propynl  C3H3,2-propynl  C3H4,allene     C3H4,propyne   
 C3H4,cyclo-     C3H5,allyl      C3H6,propylene  C3H6,cyclo-     C3H6O,propylox 
 C3H6O,acetone   C3H6O,propanal  C3H7,n-propyl   C3H7,i-propyl   C3H8           
 C3H8O,1propanol C3H8O,2propanol C3O2            *C4             C4H2,butadiyne 
 C4H4,1,3-cyclo- C4H6,butadiene  C4H6,1butyne    C4H6,2butyne    C4H6,cyclo-    
 C4H8,1-butene   C4H8,cis2-buten C4H8,tr2-butene C4H8,isobutene  C4H8,cyclo-    
 (CH3COOH)2      C4H9,n-butyl    C4H9,i-butyl    C4H9,s-butyl    C4H9,t-butyl   
 C4H10,n-butane  C4H10,isobutane *C5             C5H6,1,3cyclo-  C5H8,cyclo-    
 C5H10,1-pentene C5H10,cyclo-    C5H11,pentyl    C5H11,t-pentyl  C5H12,n-pentane
 C5H12,i-pentane CH3C(CH3)2CH3   C6H2            C6H5,phenyl     C6H5O,phenoxy  
 C6H6            C6H5OH,phenol   C6H10,cyclo-    C6H12,1-hexene  C6H12,cyclo-   
 C6H13,n-hexyl   C6H14,n-hexane  C7H7,benzyl     C7H8            C7H8O,cresol-mx
 C7H14,1-heptene C7H15,n-heptyl  C7H16,n-heptane C7H16,2-methylh C8H8,styrene   
 C8H10,ethylbenz C8H16,1-octene  C8H17,n-octyl   C8H18,n-octane  C8H18,isooctane
 C9H19,n-nonyl   C10H8,naphthale C10H21,n-decyl  C12H9,o-bipheny C12H10,biphenyl
 HCO             HCCO            HO2             HCHO,formaldehy HCOOH          
 H2O2            (HCOOH)2        *O              *O2             O3             
 C(gr)           H2O(cr)         H2O(L)         

 NOTE. WEIGHT FRACTION OF FUEL IN TOTAL FUELS AND OF OXIDANT IN TOTAL OXIDANTS






 WARNING!!  ASSIGNED pip =   0.00000 IS NOT PERMITTED
 TO BE LESS THAN  Pinj/Pc =  1.00754. POINT OMITTED (ROCKET)





              THEORETICAL ROCKET PERFORMANCE ASSUMING EQUILIBRIUM

            COMPOSITION DURING EXPANSION FROM FINITE AREA COMBUSTOR

 Pin =    67.0 PSIA
 Ac/At =  7.6424      Pinj/Pinf =  1.003750
 CASE =                

             REACTANT                    WT FRACTION      ENERGY      TEMP
                                          (SEE NOTE)     KJ/KG-MOL      K  
 OXIDANT     O2                           0.9807990      2536.736    383.710
 OXIDANT     H2O                          0.0115206   -238931.210    383.710
 OXIDANT     CO2                          0.0076804   -390174.621    383.710
 FUEL        PMMA                         1.0000000   -442140.000    293.150

 O/F=    0.74480  %FUEL= 57.313165  R,EQ.RATIO= 2.118007  PHI,EQ.RATIO= 2.625202

                 INJECTOR  COMB END  THROAT
 Pinj/P            1.0000   1.0075   1.8215
 P, BAR            4.6200   4.5854   2.5364
 T, K             1930.23  1928.71  1701.92
 RHO, KG/CU M    5.5491-1 5.5119-1 3.4556-1
 H, KJ/KG        -2592.21 -2595.35 -3058.42
 U, KJ/KG        -3424.78 -3427.26 -3792.43
 G, KJ/KG        -26130.3 -26117.9 -23815.1
 S, KJ/(KG)(K)    12.1944  12.1960  12.1960

 M, (1/n)          19.277   19.277   19.279
 (dLV/dLP)t      -1.00007 -1.00007 -1.00002
 (dLV/dLT)p        1.0019   1.0019   1.0005
 Cp, KJ/(KG)(K)    2.0637   2.0634   2.0284
 GAMMAs            1.2654   1.2655   1.2703
 SON VEL,M/SEC     1026.4   1026.0    965.6
 MACH NUMBER        0.000    0.077    1.000

 PERFORMANCE PARAMETERS

 Ae/At                      7.6425  1.00000
 CSTAR, M/SEC               1379.4   1379.4
 CF                         0.0574   0.7000
 Ivac, M/SEC               10581.5   1725.8
 Isp, M/SEC                   79.2    965.6


 MOLE FRACTIONS

 *CO              0.50452  0.50449  0.49734
 *CO2             0.04867  0.04871  0.05592
 *H               0.00026  0.00026  0.00005
 *H2              0.31514  0.31519  0.32252
 H2O              0.13139  0.13135  0.12417
 *OH              0.00001  0.00001  0.00000

  * THERMODYNAMIC PROPERTIES FITTED TO 20000.K

    PRODUCTS WHICH WERE CONSIDERED BUT WHOSE MOLE FRACTIONS
    WERE LESS THAN 5.000000E-06 FOR ALL ASSIGNED CONDITIONS

 *C              *CH             CH2             CH3             CH2OH          
 CH3O            CH4             CH3OH           CH3OOH          COOH           
 *C2             C2H             C2H2,acetylene  C2H2,vinylidene CH2CO,ketene   
 O(CH)2O         HO(CO)2OH       C2H3,vinyl      CH3CO,acetyl    C2H4           
 C2H4O,ethylen-o CH3CHO,ethanal  CH3COOH         OHCH2COOH       C2H5           
 C2H6            C2H5OH          CH3OCH3         CH3O2CH3        C2O            
 *C3             C3H3,1-propynl  C3H3,2-propynl  C3H4,allene     C3H4,propyne   
 C3H4,cyclo-     C3H5,allyl      C3H6,propylene  C3H6,cyclo-     C3H6O,propylox 
 C3H6O,acetone   C3H6O,propanal  C3H7,n-propyl   C3H7,i-propyl   C3H8           
 C3H8O,1propanol C3H8O,2propanol C3O2            *C4             C4H2,butadiyne 
 C4H4,1,3-cyclo- C4H6,butadiene  C4H6,1butyne    C4H6,2butyne    C4H6,cyclo-    
 C4H8,1-butene   C4H8,cis2-buten C4H8,tr2-butene C4H8,isobutene  C4H8,cyclo-    
 (CH3COOH)2      C4H9,n-butyl    C4H9,i-butyl    C4H9,s-butyl    C4H9,t-butyl   
 C4H10,n-butane  C4H10,isobutane *C5             C5H6,1,3cyclo-  C5H8,cyclo-    
 C5H10,1-pentene C5H10,cyclo-    C5H11,pentyl    C5H11,t-pentyl  C5H12,n-pentane
 C5H12,i-pentane CH3C(CH3)2CH3   C6H2            C6H5,phenyl     C6H5O,phenoxy  
 C6H6            C6H5OH,phenol   C6H10,cyclo-    C6H12,1-hexene  C6H12,cyclo-   
 C6H13,n-hexyl   C6H14,n-hexane  C7H7,benzyl     C7H8            C7H8O,cresol-mx
 C7H14,1-heptene C7H15,n-heptyl  C7H16,n-heptane C7H16,2-methylh C8H8,styrene   
 C8H10,ethylbenz C8H16,1-octene  C8H17,n-octyl   C8H18,n-octane  C8H18,isooctane
 C9H19,n-nonyl   C10H8,naphthale C10H21,n-decyl  C12H9,o-bipheny C12H10,biphenyl
 HCO             HCCO            HO2             HCHO,formaldehy HCOOH          
 H2O2            (HCOOH)2        *O              *O2             O3             
 C(gr)           H2O(cr)         H2O(L)         

 NOTE. WEIGHT FRACTION OF FUEL IN TOTAL FUELS AND OF OXIDANT IN TOTAL OXIDANTS






 WARNING!!  ASSIGNED pip =   0.00000 IS NOT PERMITTED
 TO BE LESS THAN  Pinj/Pc =  1.00754. POINT OMITTED (ROCKET)





              THEORETICAL ROCKET PERFORMANCE ASSUMING EQUILIBRIUM

            COMPOSITION DURING EXPANSION FROM FINITE AREA COMBUSTOR

 Pin =    67.0 PSIA
 Ac/At =  7.6424      Pinj/Pinf =  1.003750
 CASE =                

             REACTANT                    WT FRACTION      ENERGY      TEMP
                                          (SEE NOTE)     KJ/KG-MOL      K  
 OXIDANT     O2                           0.9807990      2536.736    383.710
 OXIDANT     H2O                          0.0115206   -238931.210    383.710
 OXIDANT     CO2                          0.0076804   -390174.621    383.710
 FUEL        PMMA                         1.0000000   -442140.000    293.150

 O/F=    0.74480  %FUEL= 57.313165  R,EQ.RATIO= 2.118007  PHI,EQ.RATIO= 2.625202

                 INJECTOR  COMB END  THROAT
 Pinj/P            1.0000   1.0075   1.8215
 P, BAR            4.6200   4.5854   2.5364
 T, K             1930.23  1928.71  1701.92
 RHO, KG/CU M    5.5491-1 5.5119-1 3.4556-1
 H, KJ/KG        -2592.21 -2595.35 -3058.42
 U, KJ/KG        -3424.78 -3427.26 -3792.43
 G, KJ/KG        -26130.3 -26117.9 -23815.1
 S, KJ/(KG)(K)    12.1944  12.1960  12.1960

 M, (1/n)          19.277   19.277   19.279
 (dLV/dLP)t      -1.00007 -1.00007 -1.00002
 (dLV/dLT)p        1.0019   1.0019   1.0005
 Cp, KJ/(KG)(K)    2.0637   2.0634   2.0284
 GAMMAs            1.2654   1.2655   1.2703
 SON VEL,M/SEC     1026.4   1026.0    965.6
 MACH NUMBER        0.000    0.077    1.000

 PERFORMANCE PARAMETERS

 Ae/At                      7.6425  1.00000
 CSTAR, M/SEC               1379.4   1379.4
 CF                         0.0574   0.7000
 Ivac, M/SEC               10581.5   1725.8
 Isp, M/SEC                   79.2    965.6


 MOLE FRACTIONS

 *CO              0.50452  0.50449  0.49734
 *CO2             0.04867  0.04871  0.05592
 *H               0.00026  0.00026  0.00005
 *H2              0.31514  0.31519  0.32252
 H2O              0.13139  0.13135  0.12417
 *OH              0.00001  0.00001  0.00000

  * THERMODYNAMIC PROPERTIES FITTED TO 20000.K

    PRODUCTS WHICH WERE CONSIDERED BUT WHOSE MOLE FRACTIONS
    WERE LESS THAN 5.000000E-06 FOR ALL ASSIGNED CONDITIONS

 *C              *CH             CH2             CH3             CH2OH          
 CH3O            CH4             CH3OH           CH3OOH          COOH           
 *C2             C2H             C2H2,acetylene  C2H2,vinylidene CH2CO,ketene   
 O(CH)2O         HO(CO)2OH       C2H3,vinyl      CH3CO,acetyl    C2H4           
 C2H4O,ethylen-o CH3CHO,ethanal  CH3COOH         OHCH2COOH       C2H5           
 C2H6            C2H5OH          CH3OCH3         CH3O2CH3        C2O            
 *C3             C3H3,1-propynl  C3H3,2-propynl  C3H4,allene     C3H4,propyne   
 C3H4,cyclo-     C3H5,allyl      C3H6,propylene  C3H6,cyclo-     C3H6O,propylox 
 C3H6O,acetone   C3H6O,propanal  C3H7,n-propyl   C3H7,i-propyl   C3H8           
 C3H8O,1propanol C3H8O,2propanol C3O2            *C4             C4H2,butadiyne 
 C4H4,1,3-cyclo- C4H6,butadiene  C4H6,1butyne    C4H6,2butyne    C4H6,cyclo-    
 C4H8,1-butene   C4H8,cis2-buten C4H8,tr2-butene C4H8,isobutene  C4H8,cyclo-    
 (CH3COOH)2      C4H9,n-butyl    C4H9,i-butyl    C4H9,s-butyl    C4H9,t-butyl   
 C4H10,n-butane  C4H10,isobutane *C5             C5H6,1,3cyclo-  C5H8,cyclo-    
 C5H10,1-pentene C5H10,cyclo-    C5H11,pentyl    C5H11,t-pentyl  C5H12,n-pentane
 C5H12,i-pentane CH3C(CH3)2CH3   C6H2            C6H5,phenyl     C6H5O,phenoxy  
 C6H6            C6H5OH,phenol   C6H10,cyclo-    C6H12,1-hexene  C6H12,cyclo-   
 C6H13,n-hexyl   C6H14,n-hexane  C7H7,benzyl     C7H8            C7H8O,cresol-mx
 C7H14,1-heptene C7H15,n-heptyl  C7H16,n-heptane C7H16,2-methylh C8H8,styrene   
 C8H10,ethylbenz C8H16,1-octene  C8H17,n-octyl   C8H18,n-octane  C8H18,isooctane
 C9H19,n-nonyl   C10H8,naphthale C10H21,n-decyl  C12H9,o-bipheny C12H10,biphenyl
 HCO             HCCO            HO2             HCHO,formaldehy HCOOH          
 H2O2            (HCOOH)2        *O              *O2             O3             
 C(gr)           H2O(cr)         H2O(L)         

 NOTE. WEIGHT FRACTION OF FUEL IN TOTAL FUELS AND OF OXIDANT IN TOTAL OXIDANTS






 WARNING!!  ASSIGNED pip =   0.00000 IS NOT PERMITTED
 TO BE LESS THAN  Pinj/Pc =  1.00754. POINT OMITTED (ROCKET)





              THEORETICAL ROCKET PERFORMANCE ASSUMING EQUILIBRIUM

            COMPOSITION DURING EXPANSION FROM FINITE AREA COMBUSTOR

 Pin =    67.0 PSIA
 Ac/At =  7.6424      Pinj/Pinf =  1.003750
 CASE =                

             REACTANT                    WT FRACTION      ENERGY      TEMP
                                          (SEE NOTE)     KJ/KG-MOL      K  
 OXIDANT     O2                           0.9807990      2536.736    383.710
 OXIDANT     H2O                          0.0115206   -238931.210    383.710
 OXIDANT     CO2                          0.0076804   -390174.621    383.710
 FUEL        PMMA                         1.0000000   -442140.000    293.150

 O/F=    0.74480  %FUEL= 57.313165  R,EQ.RATIO= 2.118007  PHI,EQ.RATIO= 2.625202

                 INJECTOR  COMB END  THROAT
 Pinj/P            1.0000   1.0075   1.8215
 P, BAR            4.6200   4.5854   2.5364
 T, K             1930.23  1928.71  1701.92
 RHO, KG/CU M    5.5491-1 5.5119-1 3.4556-1
 H, KJ/KG        -2592.21 -2595.35 -3058.42
 U, KJ/KG        -3424.78 -3427.26 -3792.43
 G, KJ/KG        -26130.3 -26117.9 -23815.1
 S, KJ/(KG)(K)    12.1944  12.1960  12.1960

 M, (1/n)          19.277   19.277   19.279
 (dLV/dLP)t      -1.00007 -1.00007 -1.00002
 (dLV/dLT)p        1.0019   1.0019   1.0005
 Cp, KJ/(KG)(K)    2.0637   2.0634   2.0284
 GAMMAs            1.2654   1.2655   1.2703
 SON VEL,M/SEC     1026.4   1026.0    965.6
 MACH NUMBER        0.000    0.077    1.000

 PERFORMANCE PARAMETERS

 Ae/At                      7.6425  1.00000
 CSTAR, M/SEC               1379.4   1379.4
 CF                         0.0574   0.7000
 Ivac, M/SEC               10581.5   1725.8
 Isp, M/SEC                   79.2    965.6


 MOLE FRACTIONS

 *CO              0.50452  0.50449  0.49734
 *CO2             0.04867  0.04871  0.05592
 *H               0.00026  0.00026  0.00005
 *H2              0.31514  0.31519  0.32252
 H2O              0.13139  0.13135  0.12417
 *OH              0.00001  0.00001  0.00000

  * THERMODYNAMIC PROPERTIES FITTED TO 20000.K

    PRODUCTS WHICH WERE CONSIDERED BUT WHOSE MOLE FRACTIONS
    WERE LESS THAN 5.000000E-06 FOR ALL ASSIGNED CONDITIONS

 *C              *CH             CH2             CH3             CH2OH          
 CH3O            CH4             CH3OH           CH3OOH          COOH           
 *C2             C2H             C2H2,acetylene  C2H2,vinylidene CH2CO,ketene   
 O(CH)2O         HO(CO)2OH       C2H3,vinyl      CH3CO,acetyl    C2H4           
 C2H4O,ethylen-o CH3CHO,ethanal  CH3COOH         OHCH2COOH       C2H5           
 C2H6            C2H5OH          CH3OCH3         CH3O2CH3        C2O            
 *C3             C3H3,1-propynl  C3H3,2-propynl  C3H4,allene     C3H4,propyne   
 C3H4,cyclo-     C3H5,allyl      C3H6,propylene  C3H6,cyclo-     C3H6O,propylox 
 C3H6O,acetone   C3H6O,propanal  C3H7,n-propyl   C3H7,i-propyl   C3H8           
 C3H8O,1propanol C3H8O,2propanol C3O2            *C4             C4H2,butadiyne 
 C4H4,1,3-cyclo- C4H6,butadiene  C4H6,1butyne    C4H6,2butyne    C4H6,cyclo-    
 C4H8,1-butene   C4H8,cis2-buten C4H8,tr2-butene C4H8,isobutene  C4H8,cyclo-    
 (CH3COOH)2      C4H9,n-butyl    C4H9,i-butyl    C4H9,s-butyl    C4H9,t-butyl   
 C4H10,n-butane  C4H10,isobutane *C5             C5H6,1,3cyclo-  C5H8,cyclo-    
 C5H10,1-pentene C5H10,cyclo-    C5H11,pentyl    C5H11,t-pentyl  C5H12,n-pentane
 C5H12,i-pentane CH3C(CH3)2CH3   C6H2            C6H5,phenyl     C6H5O,phenoxy  
 C6H6            C6H5OH,phenol   C6H10,cyclo-    C6H12,1-hexene  C6H12,cyclo-   
 C6H13,n-hexyl   C6H14,n-hexane  C7H7,benzyl     C7H8            C7H8O,cresol-mx
 C7H14,1-heptene C7H15,n-heptyl  C7H16,n-heptane C7H16,2-methylh C8H8,styrene   
 C8H10,ethylbenz C8H16,1-octene  C8H17,n-octyl   C8H18,n-octane  C8H18,isooctane
 C9H19,n-nonyl   C10H8,naphthale C10H21,n-decyl  C12H9,o-bipheny C12H10,biphenyl
 HCO             HCCO            HO2             HCHO,formaldehy HCOOH          
 H2O2            (HCOOH)2        *O              *O2             O3             
 C(gr)           H2O(cr)         H2O(L)         

 NOTE. WEIGHT FRACTION OF FUEL IN TOTAL FUELS AND OF OXIDANT IN TOTAL OXIDANTS






 WARNING!!  ASSIGNED pip =   0.00000 IS NOT PERMITTED
 TO BE LESS THAN  Pinj/Pc =  1.00754. POINT OMITTED (ROCKET)





              THEORETICAL ROCKET PERFORMANCE ASSUMING EQUILIBRIUM

            COMPOSITION DURING EXPANSION FROM FINITE AREA COMBUSTOR

 Pin =    67.0 PSIA
 Ac/At =  7.6424      Pinj/Pinf =  1.003750
 CASE =                

             REACTANT                    WT FRACTION      ENERGY      TEMP
                                          (SEE NOTE)     KJ/KG-MOL      K  
 OXIDANT     O2                           0.9807990      2536.736    383.710
 OXIDANT     H2O                          0.0115206   -238931.210    383.710
 OXIDANT     CO2                          0.0076804   -390174.621    383.710
 FUEL        PMMA                         1.0000000   -442140.000    293.150

 O/F=    0.74480  %FUEL= 57.313165  R,EQ.RATIO= 2.118007  PHI,EQ.RATIO= 2.625202

                 INJECTOR  COMB END  THROAT
 Pinj/P            1.0000   1.0075   1.8215
 P, BAR            4.6200   4.5854   2.5364
 T, K             1930.23  1928.71  1701.92
 RHO, KG/CU M    5.5491-1 5.5119-1 3.4556-1
 H, KJ/KG        -2592.21 -2595.35 -3058.42
 U, KJ/KG        -3424.78 -3427.26 -3792.43
 G, KJ/KG        -26130.3 -26117.9 -23815.1
 S, KJ/(KG)(K)    12.1944  12.1960  12.1960

 M, (1/n)          19.277   19.277   19.279
 (dLV/dLP)t      -1.00007 -1.00007 -1.00002
 (dLV/dLT)p        1.0019   1.0019   1.0005
 Cp, KJ/(KG)(K)    2.0637   2.0634   2.0284
 GAMMAs            1.2654   1.2655   1.2703
 SON VEL,M/SEC     1026.4   1026.0    965.6
 MACH NUMBER        0.000    0.077    1.000

 PERFORMANCE PARAMETERS

 Ae/At                      7.6425  1.00000
 CSTAR, M/SEC               1379.4   1379.4
 CF                         0.0574   0.7000
 Ivac, M/SEC               10581.5   1725.8
 Isp, M/SEC                   79.2    965.6


 MOLE FRACTIONS

 *CO              0.50452  0.50449  0.49734
 *CO2             0.04867  0.04871  0.05592
 *H               0.00026  0.00026  0.00005
 *H2              0.31514  0.31519  0.32252
 H2O              0.13139  0.13135  0.12417
 *OH              0.00001  0.00001  0.00000

  * THERMODYNAMIC PROPERTIES FITTED TO 20000.K

    PRODUCTS WHICH WERE CONSIDERED BUT WHOSE MOLE FRACTIONS
    WERE LESS THAN 5.000000E-06 FOR ALL ASSIGNED CONDITIONS

 *C              *CH             CH2             CH3             CH2OH          
 CH3O            CH4             CH3OH           CH3OOH          COOH           
 *C2             C2H             C2H2,acetylene  C2H2,vinylidene CH2CO,ketene   
 O(CH)2O         HO(CO)2OH       C2H3,vinyl      CH3CO,acetyl    C2H4           
 C2H4O,ethylen-o CH3CHO,ethanal  CH3COOH         OHCH2COOH       C2H5           
 C2H6            C2H5OH          CH3OCH3         CH3O2CH3        C2O            
 *C3             C3H3,1-propynl  C3H3,2-propynl  C3H4,allene     C3H4,propyne   
 C3H4,cyclo-     C3H5,allyl      C3H6,propylene  C3H6,cyclo-     C3H6O,propylox 
 C3H6O,acetone   C3H6O,propanal  C3H7,n-propyl   C3H7,i-propyl   C3H8           
 C3H8O,1propanol C3H8O,2propanol C3O2            *C4             C4H2,butadiyne 
 C4H4,1,3-cyclo- C4H6,butadiene  C4H6,1butyne    C4H6,2butyne    C4H6,cyclo-    
 C4H8,1-butene   C4H8,cis2-buten C4H8,tr2-butene C4H8,isobutene  C4H8,cyclo-    
 (CH3COOH)2      C4H9,n-butyl    C4H9,i-butyl    C4H9,s-butyl    C4H9,t-butyl   
 C4H10,n-butane  C4H10,isobutane *C5             C5H6,1,3cyclo-  C5H8,cyclo-    
 C5H10,1-pentene C5H10,cyclo-    C5H11,pentyl    C5H11,t-pentyl  C5H12,n-pentane
 C5H12,i-pentane CH3C(CH3)2CH3   C6H2            C6H5,phenyl     C6H5O,phenoxy  
 C6H6            C6H5OH,phenol   C6H10,cyclo-    C6H12,1-hexene  C6H12,cyclo-   
 C6H13,n-hexyl   C6H14,n-hexane  C7H7,benzyl     C7H8            C7H8O,cresol-mx
 C7H14,1-heptene C7H15,n-heptyl  C7H16,n-heptane C7H16,2-methylh C8H8,styrene   
 C8H10,ethylbenz C8H16,1-octene  C8H17,n-octyl   C8H18,n-octane  C8H18,isooctane
 C9H19,n-nonyl   C10H8,naphthale C10H21,n-decyl  C12H9,o-bipheny C12H10,biphenyl
 HCO             HCCO            HO2             HCHO,formaldehy HCOOH          
 H2O2            (HCOOH)2        *O              *O2             O3             
 C(gr)           H2O(cr)         H2O(L)         

 NOTE. WEIGHT FRACTION OF FUEL IN TOTAL FUELS AND OF OXIDANT IN TOTAL OXIDANTS






 WARNING!!  ASSIGNED pip =   0.00000 IS NOT PERMITTED
 TO BE LESS THAN  Pinj/Pc =  1.00754. POINT OMITTED (ROCKET)





              THEORETICAL ROCKET PERFORMANCE ASSUMING EQUILIBRIUM

            COMPOSITION DURING EXPANSION FROM FINITE AREA COMBUSTOR

 Pin =    67.0 PSIA
 Ac/At =  7.6424      Pinj/Pinf =  1.003750
 CASE =                

             REACTANT                    WT FRACTION      ENERGY      TEMP
                                          (SEE NOTE)     KJ/KG-MOL      K  
 OXIDANT     O2                           0.9807990      2536.736    383.710
 OXIDANT     H2O                          0.0115206   -238931.210    383.710
 OXIDANT     CO2                          0.0076804   -390174.621    383.710
 FUEL        PMMA                         1.0000000   -442140.000    293.150

 O/F=    0.74480  %FUEL= 57.313165  R,EQ.RATIO= 2.118007  PHI,EQ.RATIO= 2.625202

                 INJECTOR  COMB END  THROAT
 Pinj/P            1.0000   1.0075   1.8215
 P, BAR            4.6200   4.5854   2.5364
 T, K             1930.23  1928.71  1701.92
 RHO, KG/CU M    5.5491-1 5.5119-1 3.4556-1
 H, KJ/KG        -2592.21 -2595.35 -3058.42
 U, KJ/KG        -3424.78 -3427.26 -3792.43
 G, KJ/KG        -26130.3 -26117.9 -23815.1
 S, KJ/(KG)(K)    12.1944  12.1960  12.1960

 M, (1/n)          19.277   19.277   19.279
 (dLV/dLP)t      -1.00007 -1.00007 -1.00002
 (dLV/dLT)p        1.0019   1.0019   1.0005
 Cp, KJ/(KG)(K)    2.0637   2.0634   2.0284
 GAMMAs            1.2654   1.2655   1.2703
 SON VEL,M/SEC     1026.4   1026.0    965.6
 MACH NUMBER        0.000    0.077    1.000

 PERFORMANCE PARAMETERS

 Ae/At                      7.6425  1.00000
 CSTAR, M/SEC               1379.4   1379.4
 CF                         0.0574   0.7000
 Ivac, M/SEC               10581.5   1725.8
 Isp, M/SEC                   79.2    965.6


 MOLE FRACTIONS

 *CO              0.50452  0.50449  0.49734
 *CO2             0.04867  0.04871  0.05592
 *H               0.00026  0.00026  0.00005
 *H2              0.31514  0.31519  0.32252
 H2O              0.13139  0.13135  0.12417
 *OH              0.00001  0.00001  0.00000

  * THERMODYNAMIC PROPERTIES FITTED TO 20000.K

    PRODUCTS WHICH WERE CONSIDERED BUT WHOSE MOLE FRACTIONS
    WERE LESS THAN 5.000000E-06 FOR ALL ASSIGNED CONDITIONS

 *C              *CH             CH2             CH3             CH2OH          
 CH3O            CH4             CH3OH           CH3OOH          COOH           
 *C2             C2H             C2H2,acetylene  C2H2,vinylidene CH2CO,ketene   
 O(CH)2O         HO(CO)2OH       C2H3,vinyl      CH3CO,acetyl    C2H4           
 C2H4O,ethylen-o CH3CHO,ethanal  CH3COOH         OHCH2COOH       C2H5           
 C2H6            C2H5OH          CH3OCH3         CH3O2CH3        C2O            
 *C3             C3H3,1-propynl  C3H3,2-propynl  C3H4,allene     C3H4,propyne   
 C3H4,cyclo-     C3H5,allyl      C3H6,propylene  C3H6,cyclo-     C3H6O,propylox 
 C3H6O,acetone   C3H6O,propanal  C3H7,n-propyl   C3H7,i-propyl   C3H8           
 C3H8O,1propanol C3H8O,2propanol C3O2            *C4             C4H2,butadiyne 
 C4H4,1,3-cyclo- C4H6,butadiene  C4H6,1butyne    C4H6,2butyne    C4H6,cyclo-    
 C4H8,1-butene   C4H8,cis2-buten C4H8,tr2-butene C4H8,isobutene  C4H8,cyclo-    
 (CH3COOH)2      C4H9,n-butyl    C4H9,i-butyl    C4H9,s-butyl    C4H9,t-butyl   
 C4H10,n-butane  C4H10,isobutane *C5             C5H6,1,3cyclo-  C5H8,cyclo-    
 C5H10,1-pentene C5H10,cyclo-    C5H11,pentyl    C5H11,t-pentyl  C5H12,n-pentane
 C5H12,i-pentane CH3C(CH3)2CH3   C6H2            C6H5,phenyl     C6H5O,phenoxy  
 C6H6            C6H5OH,phenol   C6H10,cyclo-    C6H12,1-hexene  C6H12,cyclo-   
 C6H13,n-hexyl   C6H14,n-hexane  C7H7,benzyl     C7H8            C7H8O,cresol-mx
 C7H14,1-heptene C7H15,n-heptyl  C7H16,n-heptane C7H16,2-methylh C8H8,styrene   
 C8H10,ethylbenz C8H16,1-octene  C8H17,n-octyl   C8H18,n-octane  C8H18,isooctane
 C9H19,n-nonyl   C10H8,naphthale C10H21,n-decyl  C12H9,o-bipheny C12H10,biphenyl
 HCO             HCCO            HO2             HCHO,formaldehy HCOOH          
 H2O2            (HCOOH)2        *O              *O2             O3             
 C(gr)           H2O(cr)         H2O(L)         

 NOTE. WEIGHT FRACTION OF FUEL IN TOTAL FUELS AND OF OXIDANT IN TOTAL OXIDANTS






 WARNING!!  ASSIGNED pip =   0.00000 IS NOT PERMITTED
 TO BE LESS THAN  Pinj/Pc =  1.00754. POINT OMITTED (ROCKET)





              THEORETICAL ROCKET PERFORMANCE ASSUMING EQUILIBRIUM

            COMPOSITION DURING EXPANSION FROM FINITE AREA COMBUSTOR

 Pin =    67.0 PSIA
 Ac/At =  7.6424      Pinj/Pinf =  1.003750
 CASE =                

             REACTANT                    WT FRACTION      ENERGY      TEMP
                                          (SEE NOTE)     KJ/KG-MOL      K  
 OXIDANT     O2                           0.9807990      2536.736    383.710
 OXIDANT     H2O                          0.0115206   -238931.210    383.710
 OXIDANT     CO2                          0.0076804   -390174.621    383.710
 FUEL        PMMA                         1.0000000   -442140.000    293.150

 O/F=    0.74480  %FUEL= 57.313165  R,EQ.RATIO= 2.118007  PHI,EQ.RATIO= 2.625202

                 INJECTOR  COMB END  THROAT
 Pinj/P            1.0000   1.0075   1.8215
 P, BAR            4.6200   4.5854   2.5364
 T, K             1930.23  1928.71  1701.92
 RHO, KG/CU M    5.5491-1 5.5119-1 3.4556-1
 H, KJ/KG        -2592.21 -2595.35 -3058.42
 U, KJ/KG        -3424.78 -3427.26 -3792.43
 G, KJ/KG        -26130.3 -26117.9 -23815.1
 S, KJ/(KG)(K)    12.1944  12.1960  12.1960

 M, (1/n)          19.277   19.277   19.279
 (dLV/dLP)t      -1.00007 -1.00007 -1.00002
 (dLV/dLT)p        1.0019   1.0019   1.0005
 Cp, KJ/(KG)(K)    2.0637   2.0634   2.0284
 GAMMAs            1.2654   1.2655   1.2703
 SON VEL,M/SEC     1026.4   1026.0    965.6
 MACH NUMBER        0.000    0.077    1.000

 PERFORMANCE PARAMETERS

 Ae/At                      7.6425  1.00000
 CSTAR, M/SEC               1379.4   1379.4
 CF                         0.0574   0.7000
 Ivac, M/SEC               10581.5   1725.8
 Isp, M/SEC                   79.2    965.6


 MOLE FRACTIONS

 *CO              0.50452  0.50449  0.49734
 *CO2             0.04867  0.04871  0.05592
 *H               0.00026  0.00026  0.00005
 *H2              0.31514  0.31519  0.32252
 H2O              0.13139  0.13135  0.12417
 *OH              0.00001  0.00001  0.00000

  * THERMODYNAMIC PROPERTIES FITTED TO 20000.K

    PRODUCTS WHICH WERE CONSIDERED BUT WHOSE MOLE FRACTIONS
    WERE LESS THAN 5.000000E-06 FOR ALL ASSIGNED CONDITIONS

 *C              *CH             CH2             CH3             CH2OH          
 CH3O            CH4             CH3OH           CH3OOH          COOH           
 *C2             C2H             C2H2,acetylene  C2H2,vinylidene CH2CO,ketene   
 O(CH)2O         HO(CO)2OH       C2H3,vinyl      CH3CO,acetyl    C2H4           
 C2H4O,ethylen-o CH3CHO,ethanal  CH3COOH         OHCH2COOH       C2H5           
 C2H6            C2H5OH          CH3OCH3         CH3O2CH3        C2O            
 *C3             C3H3,1-propynl  C3H3,2-propynl  C3H4,allene     C3H4,propyne   
 C3H4,cyclo-     C3H5,allyl      C3H6,propylene  C3H6,cyclo-     C3H6O,propylox 
 C3H6O,acetone   C3H6O,propanal  C3H7,n-propyl   C3H7,i-propyl   C3H8           
 C3H8O,1propanol C3H8O,2propanol C3O2            *C4             C4H2,butadiyne 
 C4H4,1,3-cyclo- C4H6,butadiene  C4H6,1butyne    C4H6,2butyne    C4H6,cyclo-    
 C4H8,1-butene   C4H8,cis2-buten C4H8,tr2-butene C4H8,isobutene  C4H8,cyclo-    
 (CH3COOH)2      C4H9,n-butyl    C4H9,i-butyl    C4H9,s-butyl    C4H9,t-butyl   
 C4H10,n-butane  C4H10,isobutane *C5             C5H6,1,3cyclo-  C5H8,cyclo-    
 C5H10,1-pentene C5H10,cyclo-    C5H11,pentyl    C5H11,t-pentyl  C5H12,n-pentane
 C5H12,i-pentane CH3C(CH3)2CH3   C6H2            C6H5,phenyl     C6H5O,phenoxy  
 C6H6            C6H5OH,phenol   C6H10,cyclo-    C6H12,1-hexene  C6H12,cyclo-   
 C6H13,n-hexyl   C6H14,n-hexane  C7H7,benzyl     C7H8            C7H8O,cresol-mx
 C7H14,1-heptene C7H15,n-heptyl  C7H16,n-heptane C7H16,2-methylh C8H8,styrene   
 C8H10,ethylbenz C8H16,1-octene  C8H17,n-octyl   C8H18,n-octane  C8H18,isooctane
 C9H19,n-nonyl   C10H8,naphthale C10H21,n-decyl  C12H9,o-bipheny C12H10,biphenyl
 HCO             HCCO            HO2             HCHO,formaldehy HCOOH          
 H2O2            (HCOOH)2        *O              *O2             O3             
 C(gr)           H2O(cr)         H2O(L)         

 NOTE. WEIGHT FRACTION OF FUEL IN TOTAL FUELS AND OF OXIDANT IN TOTAL OXIDANTS






 WARNING!!  ASSIGNED pip =   0.00000 IS NOT PERMITTED
 TO BE LESS THAN  Pinj/Pc =  1.00754. POINT OMITTED (ROCKET)





              THEORETICAL ROCKET PERFORMANCE ASSUMING EQUILIBRIUM

            COMPOSITION DURING EXPANSION FROM FINITE AREA COMBUSTOR

 Pin =    67.0 PSIA
 Ac/At =  7.6424      Pinj/Pinf =  1.003750
 CASE =                

             REACTANT                    WT FRACTION      ENERGY      TEMP
                                          (SEE NOTE)     KJ/KG-MOL      K  
 OXIDANT     O2                           0.9807990      2536.736    383.710
 OXIDANT     H2O                          0.0115206   -238931.210    383.710
 OXIDANT     CO2                          0.0076804   -390174.621    383.710
 FUEL        PMMA                         1.0000000   -442140.000    293.150

 O/F=    0.74480  %FUEL= 57.313165  R,EQ.RATIO= 2.118007  PHI,EQ.RATIO= 2.625202

                 INJECTOR  COMB END  THROAT
 Pinj/P            1.0000   1.0075   1.8215
 P, BAR            4.6200   4.5854   2.5364
 T, K             1930.23  1928.71  1701.92
 RHO, KG/CU M    5.5491-1 5.5119-1 3.4556-1
 H, KJ/KG        -2592.21 -2595.35 -3058.42
 U, KJ/KG        -3424.78 -3427.26 -3792.43
 G, KJ/KG        -26130.3 -26117.9 -23815.1
 S, KJ/(KG)(K)    12.1944  12.1960  12.1960

 M, (1/n)          19.277   19.277   19.279
 (dLV/dLP)t      -1.00007 -1.00007 -1.00002
 (dLV/dLT)p        1.0019   1.0019   1.0005
 Cp, KJ/(KG)(K)    2.0637   2.0634   2.0284
 GAMMAs            1.2654   1.2655   1.2703
 SON VEL,M/SEC     1026.4   1026.0    965.6
 MACH NUMBER        0.000    0.077    1.000

 PERFORMANCE PARAMETERS

 Ae/At                      7.6425  1.00000
 CSTAR, M/SEC               1379.4   1379.4
 CF                         0.0574   0.7000
 Ivac, M/SEC               10581.5   1725.8
 Isp, M/SEC                   79.2    965.6


 MOLE FRACTIONS

 *CO              0.50452  0.50449  0.49734
 *CO2             0.04867  0.04871  0.05592
 *H               0.00026  0.00026  0.00005
 *H2              0.31514  0.31519  0.32252
 H2O              0.13139  0.13135  0.12417
 *OH              0.00001  0.00001  0.00000

  * THERMODYNAMIC PROPERTIES FITTED TO 20000.K

    PRODUCTS WHICH WERE CONSIDERED BUT WHOSE MOLE FRACTIONS
    WERE LESS THAN 5.000000E-06 FOR ALL ASSIGNED CONDITIONS

 *C              *CH             CH2             CH3             CH2OH          
 CH3O            CH4             CH3OH           CH3OOH          COOH           
 *C2             C2H             C2H2,acetylene  C2H2,vinylidene CH2CO,ketene   
 O(CH)2O         HO(CO)2OH       C2H3,vinyl      CH3CO,acetyl    C2H4           
 C2H4O,ethylen-o CH3CHO,ethanal  CH3COOH         OHCH2COOH       C2H5           
 C2H6            C2H5OH          CH3OCH3         CH3O2CH3        C2O            
 *C3             C3H3,1-propynl  C3H3,2-propynl  C3H4,allene     C3H4,propyne   
 C3H4,cyclo-     C3H5,allyl      C3H6,propylene  C3H6,cyclo-     C3H6O,propylox 
 C3H6O,acetone   C3H6O,propanal  C3H7,n-propyl   C3H7,i-propyl   C3H8           
 C3H8O,1propanol C3H8O,2propanol C3O2            *C4             C4H2,butadiyne 
 C4H4,1,3-cyclo- C4H6,butadiene  C4H6,1butyne    C4H6,2butyne    C4H6,cyclo-    
 C4H8,1-butene   C4H8,cis2-buten C4H8,tr2-butene C4H8,isobutene  C4H8,cyclo-    
 (CH3COOH)2      C4H9,n-butyl    C4H9,i-butyl    C4H9,s-butyl    C4H9,t-butyl   
 C4H10,n-butane  C4H10,isobutane *C5             C5H6,1,3cyclo-  C5H8,cyclo-    
 C5H10,1-pentene C5H10,cyclo-    C5H11,pentyl    C5H11,t-pentyl  C5H12,n-pentane
 C5H12,i-pentane CH3C(CH3)2CH3   C6H2            C6H5,phenyl     C6H5O,phenoxy  
 C6H6            C6H5OH,phenol   C6H10,cyclo-    C6H12,1-hexene  C6H12,cyclo-   
 C6H13,n-hexyl   C6H14,n-hexane  C7H7,benzyl     C7H8            C7H8O,cresol-mx
 C7H14,1-heptene C7H15,n-heptyl  C7H16,n-heptane C7H16,2-methylh C8H8,styrene   
 C8H10,ethylbenz C8H16,1-octene  C8H17,n-octyl   C8H18,n-octane  C8H18,isooctane
 C9H19,n-nonyl   C10H8,naphthale C10H21,n-decyl  C12H9,o-bipheny C12H10,biphenyl
 HCO             HCCO            HO2             HCHO,formaldehy HCOOH          
 H2O2            (HCOOH)2        *O              *O2             O3             
 C(gr)           H2O(cr)         H2O(L)         

 NOTE. WEIGHT FRACTION OF FUEL IN TOTAL FUELS AND OF OXIDANT IN TOTAL OXIDANTS






 WARNING!!  ASSIGNED pip =   0.00000 IS NOT PERMITTED
 TO BE LESS THAN  Pinj/Pc =  1.00754. POINT OMITTED (ROCKET)





              THEORETICAL ROCKET PERFORMANCE ASSUMING EQUILIBRIUM

            COMPOSITION DURING EXPANSION FROM FINITE AREA COMBUSTOR

 Pin =    67.0 PSIA
 Ac/At =  7.6424      Pinj/Pinf =  1.003750
 CASE =                

             REACTANT                    WT FRACTION      ENERGY      TEMP
                                          (SEE NOTE)     KJ/KG-MOL      K  
 OXIDANT     O2                           0.9807990      2536.736    383.710
 OXIDANT     H2O                          0.0115206   -238931.210    383.710
 OXIDANT     CO2                          0.0076804   -390174.621    383.710
 FUEL        PMMA                         1.0000000   -442140.000    293.150

 O/F=    0.74480  %FUEL= 57.313165  R,EQ.RATIO= 2.118007  PHI,EQ.RATIO= 2.625202

                 INJECTOR  COMB END  THROAT
 Pinj/P            1.0000   1.0075   1.8215
 P, BAR            4.6200   4.5854   2.5364
 T, K             1930.23  1928.71  1701.92
 RHO, KG/CU M    5.5491-1 5.5119-1 3.4556-1
 H, KJ/KG        -2592.21 -2595.35 -3058.42
 U, KJ/KG        -3424.78 -3427.26 -3792.43
 G, KJ/KG        -26130.3 -26117.9 -23815.1
 S, KJ/(KG)(K)    12.1944  12.1960  12.1960

 M, (1/n)          19.277   19.277   19.279
 (dLV/dLP)t      -1.00007 -1.00007 -1.00002
 (dLV/dLT)p        1.0019   1.0019   1.0005
 Cp, KJ/(KG)(K)    2.0637   2.0634   2.0284
 GAMMAs            1.2654   1.2655   1.2703
 SON VEL,M/SEC     1026.4   1026.0    965.6
 MACH NUMBER        0.000    0.077    1.000

 PERFORMANCE PARAMETERS

 Ae/At                      7.6425  1.00000
 CSTAR, M/SEC               1379.4   1379.4
 CF                         0.0574   0.7000
 Ivac, M/SEC               10581.5   1725.8
 Isp, M/SEC                   79.2    965.6


 MOLE FRACTIONS

 *CO              0.50452  0.50449  0.49734
 *CO2             0.04867  0.04871  0.05592
 *H               0.00026  0.00026  0.00005
 *H2              0.31514  0.31519  0.32252
 H2O              0.13139  0.13135  0.12417
 *OH              0.00001  0.00001  0.00000

  * THERMODYNAMIC PROPERTIES FITTED TO 20000.K

    PRODUCTS WHICH WERE CONSIDERED BUT WHOSE MOLE FRACTIONS
    WERE LESS THAN 5.000000E-06 FOR ALL ASSIGNED CONDITIONS

 *C              *CH             CH2             CH3             CH2OH          
 CH3O            CH4             CH3OH           CH3OOH          COOH           
 *C2             C2H             C2H2,acetylene  C2H2,vinylidene CH2CO,ketene   
 O(CH)2O         HO(CO)2OH       C2H3,vinyl      CH3CO,acetyl    C2H4           
 C2H4O,ethylen-o CH3CHO,ethanal  CH3COOH         OHCH2COOH       C2H5           
 C2H6            C2H5OH          CH3OCH3         CH3O2CH3        C2O            
 *C3             C3H3,1-propynl  C3H3,2-propynl  C3H4,allene     C3H4,propyne   
 C3H4,cyclo-     C3H5,allyl      C3H6,propylene  C3H6,cyclo-     C3H6O,propylox 
 C3H6O,acetone   C3H6O,propanal  C3H7,n-propyl   C3H7,i-propyl   C3H8           
 C3H8O,1propanol C3H8O,2propanol C3O2            *C4             C4H2,butadiyne 
 C4H4,1,3-cyclo- C4H6,butadiene  C4H6,1butyne    C4H6,2butyne    C4H6,cyclo-    
 C4H8,1-butene   C4H8,cis2-buten C4H8,tr2-butene C4H8,isobutene  C4H8,cyclo-    
 (CH3COOH)2      C4H9,n-butyl    C4H9,i-butyl    C4H9,s-butyl    C4H9,t-butyl   
 C4H10,n-butane  C4H10,isobutane *C5             C5H6,1,3cyclo-  C5H8,cyclo-    
 C5H10,1-pentene C5H10,cyclo-    C5H11,pentyl    C5H11,t-pentyl  C5H12,n-pentane
 C5H12,i-pentane CH3C(CH3)2CH3   C6H2            C6H5,phenyl     C6H5O,phenoxy  
 C6H6            C6H5OH,phenol   C6H10,cyclo-    C6H12,1-hexene  C6H12,cyclo-   
 C6H13,n-hexyl   C6H14,n-hexane  C7H7,benzyl     C7H8            C7H8O,cresol-mx
 C7H14,1-heptene C7H15,n-heptyl  C7H16,n-heptane C7H16,2-methylh C8H8,styrene   
 C8H10,ethylbenz C8H16,1-octene  C8H17,n-octyl   C8H18,n-octane  C8H18,isooctane
 C9H19,n-nonyl   C10H8,naphthale C10H21,n-decyl  C12H9,o-bipheny C12H10,biphenyl
 HCO             HCCO            HO2             HCHO,formaldehy HCOOH          
 H2O2            (HCOOH)2        *O              *O2             O3             
 C(gr)           H2O(cr)         H2O(L)         

 NOTE. WEIGHT FRACTION OF FUEL IN TOTAL FUELS AND OF OXIDANT IN TOTAL OXIDANTS






 WARNING!!  ASSIGNED pip =   0.00000 IS NOT PERMITTED
 TO BE LESS THAN  Pinj/Pc =  1.00754. POINT OMITTED (ROCKET)





              THEORETICAL ROCKET PERFORMANCE ASSUMING EQUILIBRIUM

            COMPOSITION DURING EXPANSION FROM FINITE AREA COMBUSTOR

 Pin =    67.0 PSIA
 Ac/At =  7.6424      Pinj/Pinf =  1.003750
 CASE =                

             REACTANT                    WT FRACTION      ENERGY      TEMP
                                          (SEE NOTE)     KJ/KG-MOL      K  
 OXIDANT     O2                           0.9807990      2536.736    383.710
 OXIDANT     H2O                          0.0115206   -238931.210    383.710
 OXIDANT     CO2                          0.0076804   -390174.621    383.710
 FUEL        PMMA                         1.0000000   -442140.000    293.150

 O/F=    0.74480  %FUEL= 57.313165  R,EQ.RATIO= 2.118007  PHI,EQ.RATIO= 2.625202

                 INJECTOR  COMB END  THROAT
 Pinj/P            1.0000   1.0075   1.8215
 P, BAR            4.6200   4.5854   2.5364
 T, K             1930.23  1928.71  1701.92
 RHO, KG/CU M    5.5491-1 5.5119-1 3.4556-1
 H, KJ/KG        -2592.21 -2595.35 -3058.42
 U, KJ/KG        -3424.78 -3427.26 -3792.43
 G, KJ/KG        -26130.3 -26117.9 -23815.1
 S, KJ/(KG)(K)    12.1944  12.1960  12.1960

 M, (1/n)          19.277   19.277   19.279
 (dLV/dLP)t      -1.00007 -1.00007 -1.00002
 (dLV/dLT)p        1.0019   1.0019   1.0005
 Cp, KJ/(KG)(K)    2.0637   2.0634   2.0284
 GAMMAs            1.2654   1.2655   1.2703
 SON VEL,M/SEC     1026.4   1026.0    965.6
 MACH NUMBER        0.000    0.077    1.000

 PERFORMANCE PARAMETERS

 Ae/At                      7.6425  1.00000
 CSTAR, M/SEC               1379.4   1379.4
 CF                         0.0574   0.7000
 Ivac, M/SEC               10581.5   1725.8
 Isp, M/SEC                   79.2    965.6


 MOLE FRACTIONS

 *CO              0.50452  0.50449  0.49734
 *CO2             0.04867  0.04871  0.05592
 *H               0.00026  0.00026  0.00005
 *H2              0.31514  0.31519  0.32252
 H2O              0.13139  0.13135  0.12417
 *OH              0.00001  0.00001  0.00000

  * THERMODYNAMIC PROPERTIES FITTED TO 20000.K

    PRODUCTS WHICH WERE CONSIDERED BUT WHOSE MOLE FRACTIONS
    WERE LESS THAN 5.000000E-06 FOR ALL ASSIGNED CONDITIONS

 *C              *CH             CH2             CH3             CH2OH          
 CH3O            CH4             CH3OH           CH3OOH          COOH           
 *C2             C2H             C2H2,acetylene  C2H2,vinylidene CH2CO,ketene   
 O(CH)2O         HO(CO)2OH       C2H3,vinyl      CH3CO,acetyl    C2H4           
 C2H4O,ethylen-o CH3CHO,ethanal  CH3COOH         OHCH2COOH       C2H5           
 C2H6            C2H5OH          CH3OCH3         CH3O2CH3        C2O            
 *C3             C3H3,1-propynl  C3H3,2-propynl  C3H4,allene     C3H4,propyne   
 C3H4,cyclo-     C3H5,allyl      C3H6,propylene  C3H6,cyclo-     C3H6O,propylox 
 C3H6O,acetone   C3H6O,propanal  C3H7,n-propyl   C3H7,i-propyl   C3H8           
 C3H8O,1propanol C3H8O,2propanol C3O2            *C4             C4H2,butadiyne 
 C4H4,1,3-cyclo- C4H6,butadiene  C4H6,1butyne    C4H6,2butyne    C4H6,cyclo-    
 C4H8,1-butene   C4H8,cis2-buten C4H8,tr2-butene C4H8,isobutene  C4H8,cyclo-    
 (CH3COOH)2      C4H9,n-butyl    C4H9,i-butyl    C4H9,s-butyl    C4H9,t-butyl   
 C4H10,n-butane  C4H10,isobutane *C5             C5H6,1,3cyclo-  C5H8,cyclo-    
 C5H10,1-pentene C5H10,cyclo-    C5H11,pentyl    C5H11,t-pentyl  C5H12,n-pentane
 C5H12,i-pentane CH3C(CH3)2CH3   C6H2            C6H5,phenyl     C6H5O,phenoxy  
 C6H6            C6H5OH,phenol   C6H10,cyclo-    C6H12,1-hexene  C6H12,cyclo-   
 C6H13,n-hexyl   C6H14,n-hexane  C7H7,benzyl     C7H8            C7H8O,cresol-mx
 C7H14,1-heptene C7H15,n-heptyl  C7H16,n-heptane C7H16,2-methylh C8H8,styrene   
 C8H10,ethylbenz C8H16,1-octene  C8H17,n-octyl   C8H18,n-octane  C8H18,isooctane
 C9H19,n-nonyl   C10H8,naphthale C10H21,n-decyl  C12H9,o-bipheny C12H10,biphenyl
 HCO             HCCO            HO2             HCHO,formaldehy HCOOH          
 H2O2            (HCOOH)2        *O              *O2             O3             
 C(gr)           H2O(cr)         H2O(L)         

 NOTE. WEIGHT FRACTION OF FUEL IN TOTAL FUELS AND OF OXIDANT IN TOTAL OXIDANTS






 WARNING!!  ASSIGNED pip =   0.00000 IS NOT PERMITTED
 TO BE LESS THAN  Pinj/Pc =  1.00754. POINT OMITTED (ROCKET)





              THEORETICAL ROCKET PERFORMANCE ASSUMING EQUILIBRIUM

            COMPOSITION DURING EXPANSION FROM FINITE AREA COMBUSTOR

 Pin =    67.0 PSIA
 Ac/At =  7.6424      Pinj/Pinf =  1.003750
 CASE =                

             REACTANT                    WT FRACTION      ENERGY      TEMP
                                          (SEE NOTE)     KJ/KG-MOL      K  
 OXIDANT     O2                           0.9807990      2536.736    383.710
 OXIDANT     H2O                          0.0115206   -238931.210    383.710
 OXIDANT     CO2                          0.0076804   -390174.621    383.710
 FUEL        PMMA                         1.0000000   -442140.000    293.150

 O/F=    0.74480  %FUEL= 57.313165  R,EQ.RATIO= 2.118007  PHI,EQ.RATIO= 2.625202

                 INJECTOR  COMB END  THROAT
 Pinj/P            1.0000   1.0075   1.8215
 P, BAR            4.6200   4.5854   2.5364
 T, K             1930.23  1928.71  1701.92
 RHO, KG/CU M    5.5491-1 5.5119-1 3.4556-1
 H, KJ/KG        -2592.21 -2595.35 -3058.42
 U, KJ/KG        -3424.78 -3427.26 -3792.43
 G, KJ/KG        -26130.3 -26117.9 -23815.1
 S, KJ/(KG)(K)    12.1944  12.1960  12.1960

 M, (1/n)          19.277   19.277   19.279
 (dLV/dLP)t      -1.00007 -1.00007 -1.00002
 (dLV/dLT)p        1.0019   1.0019   1.0005
 Cp, KJ/(KG)(K)    2.0637   2.0634   2.0284
 GAMMAs            1.2654   1.2655   1.2703
 SON VEL,M/SEC     1026.4   1026.0    965.6
 MACH NUMBER        0.000    0.077    1.000

 PERFORMANCE PARAMETERS

 Ae/At                      7.6425  1.00000
 CSTAR, M/SEC               1379.4   1379.4
 CF                         0.0574   0.7000
 Ivac, M/SEC               10581.5   1725.8
 Isp, M/SEC                   79.2    965.6


 MOLE FRACTIONS

 *CO              0.50452  0.50449  0.49734
 *CO2             0.04867  0.04871  0.05592
 *H               0.00026  0.00026  0.00005
 *H2              0.31514  0.31519  0.32252
 H2O              0.13139  0.13135  0.12417
 *OH              0.00001  0.00001  0.00000

  * THERMODYNAMIC PROPERTIES FITTED TO 20000.K

    PRODUCTS WHICH WERE CONSIDERED BUT WHOSE MOLE FRACTIONS
    WERE LESS THAN 5.000000E-06 FOR ALL ASSIGNED CONDITIONS

 *C              *CH             CH2             CH3             CH2OH          
 CH3O            CH4             CH3OH           CH3OOH          COOH           
 *C2             C2H             C2H2,acetylene  C2H2,vinylidene CH2CO,ketene   
 O(CH)2O         HO(CO)2OH       C2H3,vinyl      CH3CO,acetyl    C2H4           
 C2H4O,ethylen-o CH3CHO,ethanal  CH3COOH         OHCH2COOH       C2H5           
 C2H6            C2H5OH          CH3OCH3         CH3O2CH3        C2O            
 *C3             C3H3,1-propynl  C3H3,2-propynl  C3H4,allene     C3H4,propyne   
 C3H4,cyclo-     C3H5,allyl      C3H6,propylene  C3H6,cyclo-     C3H6O,propylox 
 C3H6O,acetone   C3H6O,propanal  C3H7,n-propyl   C3H7,i-propyl   C3H8           
 C3H8O,1propanol C3H8O,2propanol C3O2            *C4             C4H2,butadiyne 
 C4H4,1,3-cyclo- C4H6,butadiene  C4H6,1butyne    C4H6,2butyne    C4H6,cyclo-    
 C4H8,1-butene   C4H8,cis2-buten C4H8,tr2-butene C4H8,isobutene  C4H8,cyclo-    
 (CH3COOH)2      C4H9,n-butyl    C4H9,i-butyl    C4H9,s-butyl    C4H9,t-butyl   
 C4H10,n-butane  C4H10,isobutane *C5             C5H6,1,3cyclo-  C5H8,cyclo-    
 C5H10,1-pentene C5H10,cyclo-    C5H11,pentyl    C5H11,t-pentyl  C5H12,n-pentane
 C5H12,i-pentane CH3C(CH3)2CH3   C6H2            C6H5,phenyl     C6H5O,phenoxy  
 C6H6            C6H5OH,phenol   C6H10,cyclo-    C6H12,1-hexene  C6H12,cyclo-   
 C6H13,n-hexyl   C6H14,n-hexane  C7H7,benzyl     C7H8            C7H8O,cresol-mx
 C7H14,1-heptene C7H15,n-heptyl  C7H16,n-heptane C7H16,2-methylh C8H8,styrene   
 C8H10,ethylbenz C8H16,1-octene  C8H17,n-octyl   C8H18,n-octane  C8H18,isooctane
 C9H19,n-nonyl   C10H8,naphthale C10H21,n-decyl  C12H9,o-bipheny C12H10,biphenyl
 HCO             HCCO            HO2             HCHO,formaldehy HCOOH          
 H2O2            (HCOOH)2        *O              *O2             O3             
 C(gr)           H2O(cr)         H2O(L)         

 NOTE. WEIGHT FRACTION OF FUEL IN TOTAL FUELS AND OF OXIDANT IN TOTAL OXIDANTS






 WARNING!!  ASSIGNED pip =   0.00000 IS NOT PERMITTED
 TO BE LESS THAN  Pinj/Pc =  1.00754. POINT OMITTED (ROCKET)





              THEORETICAL ROCKET PERFORMANCE ASSUMING EQUILIBRIUM

            COMPOSITION DURING EXPANSION FROM FINITE AREA COMBUSTOR

 Pin =    67.0 PSIA
 Ac/At =  7.6424      Pinj/Pinf =  1.003750
 CASE =                

             REACTANT                    WT FRACTION      ENERGY      TEMP
                                          (SEE NOTE)     KJ/KG-MOL      K  
 OXIDANT     O2                           0.9807990      2536.736    383.710
 OXIDANT     H2O                          0.0115206   -238931.210    383.710
 OXIDANT     CO2                          0.0076804   -390174.621    383.710
 FUEL        PMMA                         1.0000000   -442140.000    293.150

 O/F=    0.74480  %FUEL= 57.313165  R,EQ.RATIO= 2.118007  PHI,EQ.RATIO= 2.625202

                 INJECTOR  COMB END  THROAT
 Pinj/P            1.0000   1.0075   1.8215
 P, BAR            4.6200   4.5854   2.5364
 T, K             1930.23  1928.71  1701.92
 RHO, KG/CU M    5.5491-1 5.5119-1 3.4556-1
 H, KJ/KG        -2592.21 -2595.35 -3058.42
 U, KJ/KG        -3424.78 -3427.26 -3792.43
 G, KJ/KG        -26130.3 -26117.9 -23815.1
 S, KJ/(KG)(K)    12.1944  12.1960  12.1960

 M, (1/n)          19.277   19.277   19.279
 (dLV/dLP)t      -1.00007 -1.00007 -1.00002
 (dLV/dLT)p        1.0019   1.0019   1.0005
 Cp, KJ/(KG)(K)    2.0637   2.0634   2.0284
 GAMMAs            1.2654   1.2655   1.2703
 SON VEL,M/SEC     1026.4   1026.0    965.6
 MACH NUMBER        0.000    0.077    1.000

 PERFORMANCE PARAMETERS

 Ae/At                      7.6425  1.00000
 CSTAR, M/SEC               1379.4   1379.4
 CF                         0.0574   0.7000
 Ivac, M/SEC               10581.5   1725.8
 Isp, M/SEC                   79.2    965.6


 MOLE FRACTIONS

 *CO              0.50452  0.50449  0.49734
 *CO2             0.04867  0.04871  0.05592
 *H               0.00026  0.00026  0.00005
 *H2              0.31514  0.31519  0.32252
 H2O              0.13139  0.13135  0.12417
 *OH              0.00001  0.00001  0.00000

  * THERMODYNAMIC PROPERTIES FITTED TO 20000.K

    PRODUCTS WHICH WERE CONSIDERED BUT WHOSE MOLE FRACTIONS
    WERE LESS THAN 5.000000E-06 FOR ALL ASSIGNED CONDITIONS

 *C              *CH             CH2             CH3             CH2OH          
 CH3O            CH4             CH3OH           CH3OOH          COOH           
 *C2             C2H             C2H2,acetylene  C2H2,vinylidene CH2CO,ketene   
 O(CH)2O         HO(CO)2OH       C2H3,vinyl      CH3CO,acetyl    C2H4           
 C2H4O,ethylen-o CH3CHO,ethanal  CH3COOH         OHCH2COOH       C2H5           
 C2H6            C2H5OH          CH3OCH3         CH3O2CH3        C2O            
 *C3             C3H3,1-propynl  C3H3,2-propynl  C3H4,allene     C3H4,propyne   
 C3H4,cyclo-     C3H5,allyl      C3H6,propylene  C3H6,cyclo-     C3H6O,propylox 
 C3H6O,acetone   C3H6O,propanal  C3H7,n-propyl   C3H7,i-propyl   C3H8           
 C3H8O,1propanol C3H8O,2propanol C3O2            *C4             C4H2,butadiyne 
 C4H4,1,3-cyclo- C4H6,butadiene  C4H6,1butyne    C4H6,2butyne    C4H6,cyclo-    
 C4H8,1-butene   C4H8,cis2-buten C4H8,tr2-butene C4H8,isobutene  C4H8,cyclo-    
 (CH3COOH)2      C4H9,n-butyl    C4H9,i-butyl    C4H9,s-butyl    C4H9,t-butyl   
 C4H10,n-butane  C4H10,isobutane *C5             C5H6,1,3cyclo-  C5H8,cyclo-    
 C5H10,1-pentene C5H10,cyclo-    C5H11,pentyl    C5H11,t-pentyl  C5H12,n-pentane
 C5H12,i-pentane CH3C(CH3)2CH3   C6H2            C6H5,phenyl     C6H5O,phenoxy  
 C6H6            C6H5OH,phenol   C6H10,cyclo-    C6H12,1-hexene  C6H12,cyclo-   
 C6H13,n-hexyl   C6H14,n-hexane  C7H7,benzyl     C7H8            C7H8O,cresol-mx
 C7H14,1-heptene C7H15,n-heptyl  C7H16,n-heptane C7H16,2-methylh C8H8,styrene   
 C8H10,ethylbenz C8H16,1-octene  C8H17,n-octyl   C8H18,n-octane  C8H18,isooctane
 C9H19,n-nonyl   C10H8,naphthale C10H21,n-decyl  C12H9,o-bipheny C12H10,biphenyl
 HCO             HCCO            HO2             HCHO,formaldehy HCOOH          
 H2O2            (HCOOH)2        *O              *O2             O3             
 C(gr)           H2O(cr)         H2O(L)         

 NOTE. WEIGHT FRACTION OF FUEL IN TOTAL FUELS AND OF OXIDANT IN TOTAL OXIDANTS






 WARNING!!  ASSIGNED pip =   0.00000 IS NOT PERMITTED
 TO BE LESS THAN  Pinj/Pc =  1.00754. POINT OMITTED (ROCKET)





              THEORETICAL ROCKET PERFORMANCE ASSUMING EQUILIBRIUM

            COMPOSITION DURING EXPANSION FROM FINITE AREA COMBUSTOR

 Pin =    67.0 PSIA
 Ac/At =  7.6424      Pinj/Pinf =  1.003750
 CASE =                

             REACTANT                    WT FRACTION      ENERGY      TEMP
                                          (SEE NOTE)     KJ/KG-MOL      K  
 OXIDANT     O2                           0.9807990      2536.736    383.710
 OXIDANT     H2O                          0.0115206   -238931.210    383.710
 OXIDANT     CO2                          0.0076804   -390174.621    383.710
 FUEL        PMMA                         1.0000000   -442140.000    293.150

 O/F=    0.74480  %FUEL= 57.313165  R,EQ.RATIO= 2.118007  PHI,EQ.RATIO= 2.625202

                 INJECTOR  COMB END  THROAT
 Pinj/P            1.0000   1.0075   1.8215
 P, BAR            4.6200   4.5854   2.5364
 T, K             1930.23  1928.71  1701.92
 RHO, KG/CU M    5.5491-1 5.5119-1 3.4556-1
 H, KJ/KG        -2592.21 -2595.35 -3058.42
 U, KJ/KG        -3424.78 -3427.26 -3792.43
 G, KJ/KG        -26130.3 -26117.9 -23815.1
 S, KJ/(KG)(K)    12.1944  12.1960  12.1960

 M, (1/n)          19.277   19.277   19.279
 (dLV/dLP)t      -1.00007 -1.00007 -1.00002
 (dLV/dLT)p        1.0019   1.0019   1.0005
 Cp, KJ/(KG)(K)    2.0637   2.0634   2.0284
 GAMMAs            1.2654   1.2655   1.2703
 SON VEL,M/SEC     1026.4   1026.0    965.6
 MACH NUMBER        0.000    0.077    1.000

 PERFORMANCE PARAMETERS

 Ae/At                      7.6425  1.00000
 CSTAR, M/SEC               1379.4   1379.4
 CF                         0.0574   0.7000
 Ivac, M/SEC               10581.5   1725.8
 Isp, M/SEC                   79.2    965.6


 MOLE FRACTIONS

 *CO              0.50452  0.50449  0.49734
 *CO2             0.04867  0.04871  0.05592
 *H               0.00026  0.00026  0.00005
 *H2              0.31514  0.31519  0.32252
 H2O              0.13139  0.13135  0.12417
 *OH              0.00001  0.00001  0.00000

  * THERMODYNAMIC PROPERTIES FITTED TO 20000.K

    PRODUCTS WHICH WERE CONSIDERED BUT WHOSE MOLE FRACTIONS
    WERE LESS THAN 5.000000E-06 FOR ALL ASSIGNED CONDITIONS

 *C              *CH             CH2             CH3             CH2OH          
 CH3O            CH4             CH3OH           CH3OOH          COOH           
 *C2             C2H             C2H2,acetylene  C2H2,vinylidene CH2CO,ketene   
 O(CH)2O         HO(CO)2OH       C2H3,vinyl      CH3CO,acetyl    C2H4           
 C2H4O,ethylen-o CH3CHO,ethanal  CH3COOH         OHCH2COOH       C2H5           
 C2H6            C2H5OH          CH3OCH3         CH3O2CH3        C2O            
 *C3             C3H3,1-propynl  C3H3,2-propynl  C3H4,allene     C3H4,propyne   
 C3H4,cyclo-     C3H5,allyl      C3H6,propylene  C3H6,cyclo-     C3H6O,propylox 
 C3H6O,acetone   C3H6O,propanal  C3H7,n-propyl   C3H7,i-propyl   C3H8           
 C3H8O,1propanol C3H8O,2propanol C3O2            *C4             C4H2,butadiyne 
 C4H4,1,3-cyclo- C4H6,butadiene  C4H6,1butyne    C4H6,2butyne    C4H6,cyclo-    
 C4H8,1-butene   C4H8,cis2-buten C4H8,tr2-butene C4H8,isobutene  C4H8,cyclo-    
 (CH3COOH)2      C4H9,n-butyl    C4H9,i-butyl    C4H9,s-butyl    C4H9,t-butyl   
 C4H10,n-butane  C4H10,isobutane *C5             C5H6,1,3cyclo-  C5H8,cyclo-    
 C5H10,1-pentene C5H10,cyclo-    C5H11,pentyl    C5H11,t-pentyl  C5H12,n-pentane
 C5H12,i-pentane CH3C(CH3)2CH3   C6H2            C6H5,phenyl     C6H5O,phenoxy  
 C6H6            C6H5OH,phenol   C6H10,cyclo-    C6H12,1-hexene  C6H12,cyclo-   
 C6H13,n-hexyl   C6H14,n-hexane  C7H7,benzyl     C7H8            C7H8O,cresol-mx
 C7H14,1-heptene C7H15,n-heptyl  C7H16,n-heptane C7H16,2-methylh C8H8,styrene   
 C8H10,ethylbenz C8H16,1-octene  C8H17,n-octyl   C8H18,n-octane  C8H18,isooctane
 C9H19,n-nonyl   C10H8,naphthale C10H21,n-decyl  C12H9,o-bipheny C12H10,biphenyl
 HCO             HCCO            HO2             HCHO,formaldehy HCOOH          
 H2O2            (HCOOH)2        *O              *O2             O3             
 C(gr)           H2O(cr)         H2O(L)         

 NOTE. WEIGHT FRACTION OF FUEL IN TOTAL FUELS AND OF OXIDANT IN TOTAL OXIDANTS






 WARNING!!  ASSIGNED pip =   0.00000 IS NOT PERMITTED
 TO BE LESS THAN  Pinj/Pc =  1.00754. POINT OMITTED (ROCKET)





              THEORETICAL ROCKET PERFORMANCE ASSUMING EQUILIBRIUM

            COMPOSITION DURING EXPANSION FROM FINITE AREA COMBUSTOR

 Pin =    67.0 PSIA
 Ac/At =  7.6424      Pinj/Pinf =  1.003750
 CASE =                

             REACTANT                    WT FRACTION      ENERGY      TEMP
                                          (SEE NOTE)     KJ/KG-MOL      K  
 OXIDANT     O2                           0.9807990      2536.736    383.710
 OXIDANT     H2O                          0.0115206   -238931.210    383.710
 OXIDANT     CO2                          0.0076804   -390174.621    383.710
 FUEL        PMMA                         1.0000000   -442140.000    293.150

 O/F=    0.74480  %FUEL= 57.313165  R,EQ.RATIO= 2.118007  PHI,EQ.RATIO= 2.625202

                 INJECTOR  COMB END  THROAT
 Pinj/P            1.0000   1.0075   1.8215
 P, BAR            4.6200   4.5854   2.5364
 T, K             1930.23  1928.71  1701.92
 RHO, KG/CU M    5.5491-1 5.5119-1 3.4556-1
 H, KJ/KG        -2592.21 -2595.35 -3058.42
 U, KJ/KG        -3424.78 -3427.26 -3792.43
 G, KJ/KG        -26130.3 -26117.9 -23815.1
 S, KJ/(KG)(K)    12.1944  12.1960  12.1960

 M, (1/n)          19.277   19.277   19.279
 (dLV/dLP)t      -1.00007 -1.00007 -1.00002
 (dLV/dLT)p        1.0019   1.0019   1.0005
 Cp, KJ/(KG)(K)    2.0637   2.0634   2.0284
 GAMMAs            1.2654   1.2655   1.2703
 SON VEL,M/SEC     1026.4   1026.0    965.6
 MACH NUMBER        0.000    0.077    1.000

 PERFORMANCE PARAMETERS

 Ae/At                      7.6425  1.00000
 CSTAR, M/SEC               1379.4   1379.4
 CF                         0.0574   0.7000
 Ivac, M/SEC               10581.5   1725.8
 Isp, M/SEC                   79.2    965.6


 MOLE FRACTIONS

 *CO              0.50452  0.50449  0.49734
 *CO2             0.04867  0.04871  0.05592
 *H               0.00026  0.00026  0.00005
 *H2              0.31514  0.31519  0.32252
 H2O              0.13139  0.13135  0.12417
 *OH              0.00001  0.00001  0.00000

  * THERMODYNAMIC PROPERTIES FITTED TO 20000.K

    PRODUCTS WHICH WERE CONSIDERED BUT WHOSE MOLE FRACTIONS
    WERE LESS THAN 5.000000E-06 FOR ALL ASSIGNED CONDITIONS

 *C              *CH             CH2             CH3             CH2OH          
 CH3O            CH4             CH3OH           CH3OOH          COOH           
 *C2             C2H             C2H2,acetylene  C2H2,vinylidene CH2CO,ketene   
 O(CH)2O         HO(CO)2OH       C2H3,vinyl      CH3CO,acetyl    C2H4           
 C2H4O,ethylen-o CH3CHO,ethanal  CH3COOH         OHCH2COOH       C2H5           
 C2H6            C2H5OH          CH3OCH3         CH3O2CH3        C2O            
 *C3             C3H3,1-propynl  C3H3,2-propynl  C3H4,allene     C3H4,propyne   
 C3H4,cyclo-     C3H5,allyl      C3H6,propylene  C3H6,cyclo-     C3H6O,propylox 
 C3H6O,acetone   C3H6O,propanal  C3H7,n-propyl   C3H7,i-propyl   C3H8           
 C3H8O,1propanol C3H8O,2propanol C3O2            *C4             C4H2,butadiyne 
 C4H4,1,3-cyclo- C4H6,butadiene  C4H6,1butyne    C4H6,2butyne    C4H6,cyclo-    
 C4H8,1-butene   C4H8,cis2-buten C4H8,tr2-butene C4H8,isobutene  C4H8,cyclo-    
 (CH3COOH)2      C4H9,n-butyl    C4H9,i-butyl    C4H9,s-butyl    C4H9,t-butyl   
 C4H10,n-butane  C4H10,isobutane *C5             C5H6,1,3cyclo-  C5H8,cyclo-    
 C5H10,1-pentene C5H10,cyclo-    C5H11,pentyl    C5H11,t-pentyl  C5H12,n-pentane
 C5H12,i-pentane CH3C(CH3)2CH3   C6H2            C6H5,phenyl     C6H5O,phenoxy  
 C6H6            C6H5OH,phenol   C6H10,cyclo-    C6H12,1-hexene  C6H12,cyclo-   
 C6H13,n-hexyl   C6H14,n-hexane  C7H7,benzyl     C7H8            C7H8O,cresol-mx
 C7H14,1-heptene C7H15,n-heptyl  C7H16,n-heptane C7H16,2-methylh C8H8,styrene   
 C8H10,ethylbenz C8H16,1-octene  C8H17,n-octyl   C8H18,n-octane  C8H18,isooctane
 C9H19,n-nonyl   C10H8,naphthale C10H21,n-decyl  C12H9,o-bipheny C12H10,biphenyl
 HCO             HCCO            HO2             HCHO,formaldehy HCOOH          
 H2O2            (HCOOH)2        *O              *O2             O3             
 C(gr)           H2O(cr)         H2O(L)         

 NOTE. WEIGHT FRACTION OF FUEL IN TOTAL FUELS AND OF OXIDANT IN TOTAL OXIDANTS






 WARNING!!  ASSIGNED pip =   0.00000 IS NOT PERMITTED
 TO BE LESS THAN  Pinj/Pc =  1.00754. POINT OMITTED (ROCKET)





              THEORETICAL ROCKET PERFORMANCE ASSUMING EQUILIBRIUM

            COMPOSITION DURING EXPANSION FROM FINITE AREA COMBUSTOR

 Pin =    67.0 PSIA
 Ac/At =  7.6424      Pinj/Pinf =  1.003750
 CASE =                

             REACTANT                    WT FRACTION      ENERGY      TEMP
                                          (SEE NOTE)     KJ/KG-MOL      K  
 OXIDANT     O2                           0.9807990      2536.736    383.710
 OXIDANT     H2O                          0.0115206   -238931.210    383.710
 OXIDANT     CO2                          0.0076804   -390174.621    383.710
 FUEL        PMMA                         1.0000000   -442140.000    293.150

 O/F=    0.74480  %FUEL= 57.313165  R,EQ.RATIO= 2.118007  PHI,EQ.RATIO= 2.625202

                 INJECTOR  COMB END  THROAT
 Pinj/P            1.0000   1.0075   1.8215
 P, BAR            4.6200   4.5854   2.5364
 T, K             1930.23  1928.71  1701.92
 RHO, KG/CU M    5.5491-1 5.5119-1 3.4556-1
 H, KJ/KG        -2592.21 -2595.35 -3058.42
 U, KJ/KG        -3424.78 -3427.26 -3792.43
 G, KJ/KG        -26130.3 -26117.9 -23815.1
 S, KJ/(KG)(K)    12.1944  12.1960  12.1960

 M, (1/n)          19.277   19.277   19.279
 (dLV/dLP)t      -1.00007 -1.00007 -1.00002
 (dLV/dLT)p        1.0019   1.0019   1.0005
 Cp, KJ/(KG)(K)    2.0637   2.0634   2.0284
 GAMMAs            1.2654   1.2655   1.2703
 SON VEL,M/SEC     1026.4   1026.0    965.6
 MACH NUMBER        0.000    0.077    1.000

 PERFORMANCE PARAMETERS

 Ae/At                      7.6425  1.00000
 CSTAR, M/SEC               1379.4   1379.4
 CF                         0.0574   0.7000
 Ivac, M/SEC               10581.5   1725.8
 Isp, M/SEC                   79.2    965.6


 MOLE FRACTIONS

 *CO              0.50452  0.50449  0.49734
 *CO2             0.04867  0.04871  0.05592
 *H               0.00026  0.00026  0.00005
 *H2              0.31514  0.31519  0.32252
 H2O              0.13139  0.13135  0.12417
 *OH              0.00001  0.00001  0.00000

  * THERMODYNAMIC PROPERTIES FITTED TO 20000.K

    PRODUCTS WHICH WERE CONSIDERED BUT WHOSE MOLE FRACTIONS
    WERE LESS THAN 5.000000E-06 FOR ALL ASSIGNED CONDITIONS

 *C              *CH             CH2             CH3             CH2OH          
 CH3O            CH4             CH3OH           CH3OOH          COOH           
 *C2             C2H             C2H2,acetylene  C2H2,vinylidene CH2CO,ketene   
 O(CH)2O         HO(CO)2OH       C2H3,vinyl      CH3CO,acetyl    C2H4           
 C2H4O,ethylen-o CH3CHO,ethanal  CH3COOH         OHCH2COOH       C2H5           
 C2H6            C2H5OH          CH3OCH3         CH3O2CH3        C2O            
 *C3             C3H3,1-propynl  C3H3,2-propynl  C3H4,allene     C3H4,propyne   
 C3H4,cyclo-     C3H5,allyl      C3H6,propylene  C3H6,cyclo-     C3H6O,propylox 
 C3H6O,acetone   C3H6O,propanal  C3H7,n-propyl   C3H7,i-propyl   C3H8           
 C3H8O,1propanol C3H8O,2propanol C3O2            *C4             C4H2,butadiyne 
 C4H4,1,3-cyclo- C4H6,butadiene  C4H6,1butyne    C4H6,2butyne    C4H6,cyclo-    
 C4H8,1-butene   C4H8,cis2-buten C4H8,tr2-butene C4H8,isobutene  C4H8,cyclo-    
 (CH3COOH)2      C4H9,n-butyl    C4H9,i-butyl    C4H9,s-butyl    C4H9,t-butyl   
 C4H10,n-butane  C4H10,isobutane *C5             C5H6,1,3cyclo-  C5H8,cyclo-    
 C5H10,1-pentene C5H10,cyclo-    C5H11,pentyl    C5H11,t-pentyl  C5H12,n-pentane
 C5H12,i-pentane CH3C(CH3)2CH3   C6H2            C6H5,phenyl     C6H5O,phenoxy  
 C6H6            C6H5OH,phenol   C6H10,cyclo-    C6H12,1-hexene  C6H12,cyclo-   
 C6H13,n-hexyl   C6H14,n-hexane  C7H7,benzyl     C7H8            C7H8O,cresol-mx
 C7H14,1-heptene C7H15,n-heptyl  C7H16,n-heptane C7H16,2-methylh C8H8,styrene   
 C8H10,ethylbenz C8H16,1-octene  C8H17,n-octyl   C8H18,n-octane  C8H18,isooctane
 C9H19,n-nonyl   C10H8,naphthale C10H21,n-decyl  C12H9,o-bipheny C12H10,biphenyl
 HCO             HCCO            HO2             HCHO,formaldehy HCOOH          
 H2O2            (HCOOH)2        *O              *O2             O3             
 C(gr)           H2O(cr)         H2O(L)         

 NOTE. WEIGHT FRACTION OF FUEL IN TOTAL FUELS AND OF OXIDANT IN TOTAL OXIDANTS






 WARNING!!  ASSIGNED pip =   0.00000 IS NOT PERMITTED
 TO BE LESS THAN  Pinj/Pc =  1.00754. POINT OMITTED (ROCKET)





              THEORETICAL ROCKET PERFORMANCE ASSUMING EQUILIBRIUM

            COMPOSITION DURING EXPANSION FROM FINITE AREA COMBUSTOR

 Pin =    67.0 PSIA
 Ac/At =  7.6424      Pinj/Pinf =  1.003750
 CASE =                

             REACTANT                    WT FRACTION      ENERGY      TEMP
                                          (SEE NOTE)     KJ/KG-MOL      K  
 OXIDANT     O2                           0.9807990      2536.736    383.710
 OXIDANT     H2O                          0.0115206   -238931.210    383.710
 OXIDANT     CO2                          0.0076804   -390174.621    383.710
 FUEL        PMMA                         1.0000000   -442140.000    293.150

 O/F=    0.74480  %FUEL= 57.313165  R,EQ.RATIO= 2.118007  PHI,EQ.RATIO= 2.625202

                 INJECTOR  COMB END  THROAT
 Pinj/P            1.0000   1.0075   1.8215
 P, BAR            4.6200   4.5854   2.5364
 T, K             1930.23  1928.71  1701.92
 RHO, KG/CU M    5.5491-1 5.5119-1 3.4556-1
 H, KJ/KG        -2592.21 -2595.35 -3058.42
 U, KJ/KG        -3424.78 -3427.26 -3792.43
 G, KJ/KG        -26130.3 -26117.9 -23815.1
 S, KJ/(KG)(K)    12.1944  12.1960  12.1960

 M, (1/n)          19.277   19.277   19.279
 (dLV/dLP)t      -1.00007 -1.00007 -1.00002
 (dLV/dLT)p        1.0019   1.0019   1.0005
 Cp, KJ/(KG)(K)    2.0637   2.0634   2.0284
 GAMMAs            1.2654   1.2655   1.2703
 SON VEL,M/SEC     1026.4   1026.0    965.6
 MACH NUMBER        0.000    0.077    1.000

 PERFORMANCE PARAMETERS

 Ae/At                      7.6425  1.00000
 CSTAR, M/SEC               1379.4   1379.4
 CF                         0.0574   0.7000
 Ivac, M/SEC               10581.5   1725.8
 Isp, M/SEC                   79.2    965.6


 MOLE FRACTIONS

 *CO              0.50452  0.50449  0.49734
 *CO2             0.04867  0.04871  0.05592
 *H               0.00026  0.00026  0.00005
 *H2              0.31514  0.31519  0.32252
 H2O              0.13139  0.13135  0.12417
 *OH              0.00001  0.00001  0.00000

  * THERMODYNAMIC PROPERTIES FITTED TO 20000.K

    PRODUCTS WHICH WERE CONSIDERED BUT WHOSE MOLE FRACTIONS
    WERE LESS THAN 5.000000E-06 FOR ALL ASSIGNED CONDITIONS

 *C              *CH             CH2             CH3             CH2OH          
 CH3O            CH4             CH3OH           CH3OOH          COOH           
 *C2             C2H             C2H2,acetylene  C2H2,vinylidene CH2CO,ketene   
 O(CH)2O         HO(CO)2OH       C2H3,vinyl      CH3CO,acetyl    C2H4           
 C2H4O,ethylen-o CH3CHO,ethanal  CH3COOH         OHCH2COOH       C2H5           
 C2H6            C2H5OH          CH3OCH3         CH3O2CH3        C2O            
 *C3             C3H3,1-propynl  C3H3,2-propynl  C3H4,allene     C3H4,propyne   
 C3H4,cyclo-     C3H5,allyl      C3H6,propylene  C3H6,cyclo-     C3H6O,propylox 
 C3H6O,acetone   C3H6O,propanal  C3H7,n-propyl   C3H7,i-propyl   C3H8           
 C3H8O,1propanol C3H8O,2propanol C3O2            *C4             C4H2,butadiyne 
 C4H4,1,3-cyclo- C4H6,butadiene  C4H6,1butyne    C4H6,2butyne    C4H6,cyclo-    
 C4H8,1-butene   C4H8,cis2-buten C4H8,tr2-butene C4H8,isobutene  C4H8,cyclo-    
 (CH3COOH)2      C4H9,n-butyl    C4H9,i-butyl    C4H9,s-butyl    C4H9,t-butyl   
 C4H10,n-butane  C4H10,isobutane *C5             C5H6,1,3cyclo-  C5H8,cyclo-    
 C5H10,1-pentene C5H10,cyclo-    C5H11,pentyl    C5H11,t-pentyl  C5H12,n-pentane
 C5H12,i-pentane CH3C(CH3)2CH3   C6H2            C6H5,phenyl     C6H5O,phenoxy  
 C6H6            C6H5OH,phenol   C6H10,cyclo-    C6H12,1-hexene  C6H12,cyclo-   
 C6H13,n-hexyl   C6H14,n-hexane  C7H7,benzyl     C7H8            C7H8O,cresol-mx
 C7H14,1-heptene C7H15,n-heptyl  C7H16,n-heptane C7H16,2-methylh C8H8,styrene   
 C8H10,ethylbenz C8H16,1-octene  C8H17,n-octyl   C8H18,n-octane  C8H18,isooctane
 C9H19,n-nonyl   C10H8,naphthale C10H21,n-decyl  C12H9,o-bipheny C12H10,biphenyl
 HCO             HCCO            HO2             HCHO,formaldehy HCOOH          
 H2O2            (HCOOH)2        *O              *O2             O3             
 C(gr)           H2O(cr)         H2O(L)         

 NOTE. WEIGHT FRACTION OF FUEL IN TOTAL FUELS AND OF OXIDANT IN TOTAL OXIDANTS






 WARNING!!  ASSIGNED pip =   0.00000 IS NOT PERMITTED
 TO BE LESS THAN  Pinj/Pc =  1.00754. POINT OMITTED (ROCKET)





              THEORETICAL ROCKET PERFORMANCE ASSUMING EQUILIBRIUM

            COMPOSITION DURING EXPANSION FROM FINITE AREA COMBUSTOR

 Pin =    67.0 PSIA
 Ac/At =  7.6424      Pinj/Pinf =  1.003750
 CASE =                

             REACTANT                    WT FRACTION      ENERGY      TEMP
                                          (SEE NOTE)     KJ/KG-MOL      K  
 OXIDANT     O2                           0.9807990      2536.736    383.710
 OXIDANT     H2O                          0.0115206   -238931.210    383.710
 OXIDANT     CO2                          0.0076804   -390174.621    383.710
 FUEL        PMMA                         1.0000000   -442140.000    293.150

 O/F=    0.74480  %FUEL= 57.313165  R,EQ.RATIO= 2.118007  PHI,EQ.RATIO= 2.625202

                 INJECTOR  COMB END  THROAT
 Pinj/P            1.0000   1.0075   1.8215
 P, BAR            4.6200   4.5854   2.5364
 T, K             1930.23  1928.71  1701.92
 RHO, KG/CU M    5.5491-1 5.5119-1 3.4556-1
 H, KJ/KG        -2592.21 -2595.35 -3058.42
 U, KJ/KG        -3424.78 -3427.26 -3792.43
 G, KJ/KG        -26130.3 -26117.9 -23815.1
 S, KJ/(KG)(K)    12.1944  12.1960  12.1960

 M, (1/n)          19.277   19.277   19.279
 (dLV/dLP)t      -1.00007 -1.00007 -1.00002
 (dLV/dLT)p        1.0019   1.0019   1.0005
 Cp, KJ/(KG)(K)    2.0637   2.0634   2.0284
 GAMMAs            1.2654   1.2655   1.2703
 SON VEL,M/SEC     1026.4   1026.0    965.6
 MACH NUMBER        0.000    0.077    1.000

 PERFORMANCE PARAMETERS

 Ae/At                      7.6425  1.00000
 CSTAR, M/SEC               1379.4   1379.4
 CF                         0.0574   0.7000
 Ivac, M/SEC               10581.5   1725.8
 Isp, M/SEC                   79.2    965.6


 MOLE FRACTIONS

 *CO              0.50452  0.50449  0.49734
 *CO2             0.04867  0.04871  0.05592
 *H               0.00026  0.00026  0.00005
 *H2              0.31514  0.31519  0.32252
 H2O              0.13139  0.13135  0.12417
 *OH              0.00001  0.00001  0.00000

  * THERMODYNAMIC PROPERTIES FITTED TO 20000.K

    PRODUCTS WHICH WERE CONSIDERED BUT WHOSE MOLE FRACTIONS
    WERE LESS THAN 5.000000E-06 FOR ALL ASSIGNED CONDITIONS

 *C              *CH             CH2             CH3             CH2OH          
 CH3O            CH4             CH3OH           CH3OOH          COOH           
 *C2             C2H             C2H2,acetylene  C2H2,vinylidene CH2CO,ketene   
 O(CH)2O         HO(CO)2OH       C2H3,vinyl      CH3CO,acetyl    C2H4           
 C2H4O,ethylen-o CH3CHO,ethanal  CH3COOH         OHCH2COOH       C2H5           
 C2H6            C2H5OH          CH3OCH3         CH3O2CH3        C2O            
 *C3             C3H3,1-propynl  C3H3,2-propynl  C3H4,allene     C3H4,propyne   
 C3H4,cyclo-     C3H5,allyl      C3H6,propylene  C3H6,cyclo-     C3H6O,propylox 
 C3H6O,acetone   C3H6O,propanal  C3H7,n-propyl   C3H7,i-propyl   C3H8           
 C3H8O,1propanol C3H8O,2propanol C3O2            *C4             C4H2,butadiyne 
 C4H4,1,3-cyclo- C4H6,butadiene  C4H6,1butyne    C4H6,2butyne    C4H6,cyclo-    
 C4H8,1-butene   C4H8,cis2-buten C4H8,tr2-butene C4H8,isobutene  C4H8,cyclo-    
 (CH3COOH)2      C4H9,n-butyl    C4H9,i-butyl    C4H9,s-butyl    C4H9,t-butyl   
 C4H10,n-butane  C4H10,isobutane *C5             C5H6,1,3cyclo-  C5H8,cyclo-    
 C5H10,1-pentene C5H10,cyclo-    C5H11,pentyl    C5H11,t-pentyl  C5H12,n-pentane
 C5H12,i-pentane CH3C(CH3)2CH3   C6H2            C6H5,phenyl     C6H5O,phenoxy  
 C6H6            C6H5OH,phenol   C6H10,cyclo-    C6H12,1-hexene  C6H12,cyclo-   
 C6H13,n-hexyl   C6H14,n-hexane  C7H7,benzyl     C7H8            C7H8O,cresol-mx
 C7H14,1-heptene C7H15,n-heptyl  C7H16,n-heptane C7H16,2-methylh C8H8,styrene   
 C8H10,ethylbenz C8H16,1-octene  C8H17,n-octyl   C8H18,n-octane  C8H18,isooctane
 C9H19,n-nonyl   C10H8,naphthale C10H21,n-decyl  C12H9,o-bipheny C12H10,biphenyl
 HCO             HCCO            HO2             HCHO,formaldehy HCOOH          
 H2O2            (HCOOH)2        *O              *O2             O3             
 C(gr)           H2O(cr)         H2O(L)         

 NOTE. WEIGHT FRACTION OF FUEL IN TOTAL FUELS AND OF OXIDANT IN TOTAL OXIDANTS






 WARNING!!  ASSIGNED pip =   0.00000 IS NOT PERMITTED
 TO BE LESS THAN  Pinj/Pc =  1.00754. POINT OMITTED (ROCKET)





              THEORETICAL ROCKET PERFORMANCE ASSUMING EQUILIBRIUM

            COMPOSITION DURING EXPANSION FROM FINITE AREA COMBUSTOR

 Pin =    67.0 PSIA
 Ac/At =  7.6424      Pinj/Pinf =  1.003750
 CASE =                

             REACTANT                    WT FRACTION      ENERGY      TEMP
                                          (SEE NOTE)     KJ/KG-MOL      K  
 OXIDANT     O2                           0.9807990      2536.736    383.710
 OXIDANT     H2O                          0.0115206   -238931.210    383.710
 OXIDANT     CO2                          0.0076804   -390174.621    383.710
 FUEL        PMMA                         1.0000000   -442140.000    293.150

 O/F=    0.74480  %FUEL= 57.313165  R,EQ.RATIO= 2.118007  PHI,EQ.RATIO= 2.625202

                 INJECTOR  COMB END  THROAT
 Pinj/P            1.0000   1.0075   1.8215
 P, BAR            4.6200   4.5854   2.5364
 T, K             1930.23  1928.71  1701.92
 RHO, KG/CU M    5.5491-1 5.5119-1 3.4556-1
 H, KJ/KG        -2592.21 -2595.35 -3058.42
 U, KJ/KG        -3424.78 -3427.26 -3792.43
 G, KJ/KG        -26130.3 -26117.9 -23815.1
 S, KJ/(KG)(K)    12.1944  12.1960  12.1960

 M, (1/n)          19.277   19.277   19.279
 (dLV/dLP)t      -1.00007 -1.00007 -1.00002
 (dLV/dLT)p        1.0019   1.0019   1.0005
 Cp, KJ/(KG)(K)    2.0637   2.0634   2.0284
 GAMMAs            1.2654   1.2655   1.2703
 SON VEL,M/SEC     1026.4   1026.0    965.6
 MACH NUMBER        0.000    0.077    1.000

 PERFORMANCE PARAMETERS

 Ae/At                      7.6425  1.00000
 CSTAR, M/SEC               1379.4   1379.4
 CF                         0.0574   0.7000
 Ivac, M/SEC               10581.5   1725.8
 Isp, M/SEC                   79.2    965.6


 MOLE FRACTIONS

 *CO              0.50452  0.50449  0.49734
 *CO2             0.04867  0.04871  0.05592
 *H               0.00026  0.00026  0.00005
 *H2              0.31514  0.31519  0.32252
 H2O              0.13139  0.13135  0.12417
 *OH              0.00001  0.00001  0.00000

  * THERMODYNAMIC PROPERTIES FITTED TO 20000.K

    PRODUCTS WHICH WERE CONSIDERED BUT WHOSE MOLE FRACTIONS
    WERE LESS THAN 5.000000E-06 FOR ALL ASSIGNED CONDITIONS

 *C              *CH             CH2             CH3             CH2OH          
 CH3O            CH4             CH3OH           CH3OOH          COOH           
 *C2             C2H             C2H2,acetylene  C2H2,vinylidene CH2CO,ketene   
 O(CH)2O         HO(CO)2OH       C2H3,vinyl      CH3CO,acetyl    C2H4           
 C2H4O,ethylen-o CH3CHO,ethanal  CH3COOH         OHCH2COOH       C2H5           
 C2H6            C2H5OH          CH3OCH3         CH3O2CH3        C2O            
 *C3             C3H3,1-propynl  C3H3,2-propynl  C3H4,allene     C3H4,propyne   
 C3H4,cyclo-     C3H5,allyl      C3H6,propylene  C3H6,cyclo-     C3H6O,propylox 
 C3H6O,acetone   C3H6O,propanal  C3H7,n-propyl   C3H7,i-propyl   C3H8           
 C3H8O,1propanol C3H8O,2propanol C3O2            *C4             C4H2,butadiyne 
 C4H4,1,3-cyclo- C4H6,butadiene  C4H6,1butyne    C4H6,2butyne    C4H6,cyclo-    
 C4H8,1-butene   C4H8,cis2-buten C4H8,tr2-butene C4H8,isobutene  C4H8,cyclo-    
 (CH3COOH)2      C4H9,n-butyl    C4H9,i-butyl    C4H9,s-butyl    C4H9,t-butyl   
 C4H10,n-butane  C4H10,isobutane *C5             C5H6,1,3cyclo-  C5H8,cyclo-    
 C5H10,1-pentene C5H10,cyclo-    C5H11,pentyl    C5H11,t-pentyl  C5H12,n-pentane
 C5H12,i-pentane CH3C(CH3)2CH3   C6H2            C6H5,phenyl     C6H5O,phenoxy  
 C6H6            C6H5OH,phenol   C6H10,cyclo-    C6H12,1-hexene  C6H12,cyclo-   
 C6H13,n-hexyl   C6H14,n-hexane  C7H7,benzyl     C7H8            C7H8O,cresol-mx
 C7H14,1-heptene C7H15,n-heptyl  C7H16,n-heptane C7H16,2-methylh C8H8,styrene   
 C8H10,ethylbenz C8H16,1-octene  C8H17,n-octyl   C8H18,n-octane  C8H18,isooctane
 C9H19,n-nonyl   C10H8,naphthale C10H21,n-decyl  C12H9,o-bipheny C12H10,biphenyl
 HCO             HCCO            HO2             HCHO,formaldehy HCOOH          
 H2O2            (HCOOH)2        *O              *O2             O3             
 C(gr)           H2O(cr)         H2O(L)         

 NOTE. WEIGHT FRACTION OF FUEL IN TOTAL FUELS AND OF OXIDANT IN TOTAL OXIDANTS






 WARNING!!  ASSIGNED pip =   0.00000 IS NOT PERMITTED
 TO BE LESS THAN  Pinj/Pc =  1.00754. POINT OMITTED (ROCKET)





              THEORETICAL ROCKET PERFORMANCE ASSUMING EQUILIBRIUM

            COMPOSITION DURING EXPANSION FROM FINITE AREA COMBUSTOR

 Pin =    67.0 PSIA
 Ac/At =  7.6424      Pinj/Pinf =  1.003750
 CASE =                

             REACTANT                    WT FRACTION      ENERGY      TEMP
                                          (SEE NOTE)     KJ/KG-MOL      K  
 OXIDANT     O2                           0.9807990      2536.736    383.710
 OXIDANT     H2O                          0.0115206   -238931.210    383.710
 OXIDANT     CO2                          0.0076804   -390174.621    383.710
 FUEL        PMMA                         1.0000000   -442140.000    293.150

 O/F=    0.74480  %FUEL= 57.313165  R,EQ.RATIO= 2.118007  PHI,EQ.RATIO= 2.625202

                 INJECTOR  COMB END  THROAT
 Pinj/P            1.0000   1.0075   1.8215
 P, BAR            4.6200   4.5854   2.5364
 T, K             1930.23  1928.71  1701.92
 RHO, KG/CU M    5.5491-1 5.5119-1 3.4556-1
 H, KJ/KG        -2592.21 -2595.35 -3058.42
 U, KJ/KG        -3424.78 -3427.26 -3792.43
 G, KJ/KG        -26130.3 -26117.9 -23815.1
 S, KJ/(KG)(K)    12.1944  12.1960  12.1960

 M, (1/n)          19.277   19.277   19.279
 (dLV/dLP)t      -1.00007 -1.00007 -1.00002
 (dLV/dLT)p        1.0019   1.0019   1.0005
 Cp, KJ/(KG)(K)    2.0637   2.0634   2.0284
 GAMMAs            1.2654   1.2655   1.2703
 SON VEL,M/SEC     1026.4   1026.0    965.6
 MACH NUMBER        0.000    0.077    1.000

 PERFORMANCE PARAMETERS

 Ae/At                      7.6425  1.00000
 CSTAR, M/SEC               1379.4   1379.4
 CF                         0.0574   0.7000
 Ivac, M/SEC               10581.5   1725.8
 Isp, M/SEC                   79.2    965.6


 MOLE FRACTIONS

 *CO              0.50452  0.50449  0.49734
 *CO2             0.04867  0.04871  0.05592
 *H               0.00026  0.00026  0.00005
 *H2              0.31514  0.31519  0.32252
 H2O              0.13139  0.13135  0.12417
 *OH              0.00001  0.00001  0.00000

  * THERMODYNAMIC PROPERTIES FITTED TO 20000.K

    PRODUCTS WHICH WERE CONSIDERED BUT WHOSE MOLE FRACTIONS
    WERE LESS THAN 5.000000E-06 FOR ALL ASSIGNED CONDITIONS

 *C              *CH             CH2             CH3             CH2OH          
 CH3O            CH4             CH3OH           CH3OOH          COOH           
 *C2             C2H             C2H2,acetylene  C2H2,vinylidene CH2CO,ketene   
 O(CH)2O         HO(CO)2OH       C2H3,vinyl      CH3CO,acetyl    C2H4           
 C2H4O,ethylen-o CH3CHO,ethanal  CH3COOH         OHCH2COOH       C2H5           
 C2H6            C2H5OH          CH3OCH3         CH3O2CH3        C2O            
 *C3             C3H3,1-propynl  C3H3,2-propynl  C3H4,allene     C3H4,propyne   
 C3H4,cyclo-     C3H5,allyl      C3H6,propylene  C3H6,cyclo-     C3H6O,propylox 
 C3H6O,acetone   C3H6O,propanal  C3H7,n-propyl   C3H7,i-propyl   C3H8           
 C3H8O,1propanol C3H8O,2propanol C3O2            *C4             C4H2,butadiyne 
 C4H4,1,3-cyclo- C4H6,butadiene  C4H6,1butyne    C4H6,2butyne    C4H6,cyclo-    
 C4H8,1-butene   C4H8,cis2-buten C4H8,tr2-butene C4H8,isobutene  C4H8,cyclo-    
 (CH3COOH)2      C4H9,n-butyl    C4H9,i-butyl    C4H9,s-butyl    C4H9,t-butyl   
 C4H10,n-butane  C4H10,isobutane *C5             C5H6,1,3cyclo-  C5H8,cyclo-    
 C5H10,1-pentene C5H10,cyclo-    C5H11,pentyl    C5H11,t-pentyl  C5H12,n-pentane
 C5H12,i-pentane CH3C(CH3)2CH3   C6H2            C6H5,phenyl     C6H5O,phenoxy  
 C6H6            C6H5OH,phenol   C6H10,cyclo-    C6H12,1-hexene  C6H12,cyclo-   
 C6H13,n-hexyl   C6H14,n-hexane  C7H7,benzyl     C7H8            C7H8O,cresol-mx
 C7H14,1-heptene C7H15,n-heptyl  C7H16,n-heptane C7H16,2-methylh C8H8,styrene   
 C8H10,ethylbenz C8H16,1-octene  C8H17,n-octyl   C8H18,n-octane  C8H18,isooctane
 C9H19,n-nonyl   C10H8,naphthale C10H21,n-decyl  C12H9,o-bipheny C12H10,biphenyl
 HCO             HCCO            HO2             HCHO,formaldehy HCOOH          
 H2O2            (HCOOH)2        *O              *O2             O3             
 C(gr)           H2O(cr)         H2O(L)         

 NOTE. WEIGHT FRACTION OF FUEL IN TOTAL FUELS AND OF OXIDANT IN TOTAL OXIDANTS





   4    4    1252.811     -32.019      -9.823      -6.073





              THEORETICAL ROCKET PERFORMANCE ASSUMING EQUILIBRIUM

            COMPOSITION DURING EXPANSION FROM FINITE AREA COMBUSTOR

 Pin =    67.0 PSIA
 Ac/At =  7.6424      Pinj/Pinf =  1.003750
 CASE =                

             REACTANT                    WT FRACTION      ENERGY      TEMP
                                          (SEE NOTE)     KJ/KG-MOL      K  
 OXIDANT     O2                           0.9807990      2536.736    383.710
 OXIDANT     H2O                          0.0115206   -238931.210    383.710
 OXIDANT     CO2                          0.0076804   -390174.621    383.710
 FUEL        PMMA                         1.0000000   -442140.000    293.150

 O/F=    0.74480  %FUEL= 57.313165  R,EQ.RATIO= 2.118007  PHI,EQ.RATIO= 2.625202

                 INJECTOR  COMB END  THROAT     EXIT
 Pinj/P            1.0000   1.0075   1.8215   7.6424
 P, BAR            4.6200   4.5854   2.5364  0.60452
 T, K             1930.23  1928.71  1701.92  1252.81
 RHO, KG/CU M    5.5491-1 5.5119-1 3.4556-1 1.1189-1
 H, KJ/KG        -2592.21 -2595.35 -3058.42 -3965.07
 U, KJ/KG        -3424.78 -3427.26 -3792.43 -4505.36
 G, KJ/KG        -26130.3 -26117.9 -23815.1 -19244.4
 S, KJ/(KG)(K)    12.1944  12.1960  12.1960  12.1960

 M, (1/n)          19.277   19.277   19.279   19.280
 (dLV/dLP)t      -1.00007 -1.00007 -1.00002 -1.00005
 (dLV/dLT)p        1.0019   1.0019   1.0005   1.0006
 Cp, KJ/(KG)(K)    2.0637   2.0634   2.0284   2.0283
 GAMMAs            1.2654   1.2655   1.2703   1.2703
 SON VEL,M/SEC     1026.4   1026.0    965.6    828.5
 MACH NUMBER        0.000    0.077    1.000    2.000

 PERFORMANCE PARAMETERS

 Ae/At                      7.6425  1.00000   1.7998
 CSTAR, M/SEC               1379.4   1379.4   1379.4
 CF                         0.0574   0.7000   1.2013
 Ivac, M/SEC               10581.5   1725.8   1983.1
 Isp, M/SEC                   79.2    965.6   1657.0


 MOLE FRACTIONS

 CH4              0.00000  0.00000  0.00000  0.00001
 *CO              0.50452  0.50449  0.49734  0.47034
 *CO2             0.04867  0.04871  0.05592  0.08293
 *H               0.00026  0.00026  0.00005  0.00000
 *H2              0.31514  0.31519  0.32252  0.34953
 H2O              0.13139  0.13135  0.12417  0.09718
 *OH              0.00001  0.00001  0.00000  0.00000

  * THERMODYNAMIC PROPERTIES FITTED TO 20000.K

    PRODUCTS WHICH WERE CONSIDERED BUT WHOSE MOLE FRACTIONS
    WERE LESS THAN 5.000000E-06 FOR ALL ASSIGNED CONDITIONS

 *C              *CH             CH2             CH3             CH2OH          
 CH3O            CH3OH           CH3OOH          COOH            *C2            
 C2H             C2H2,acetylene  C2H2,vinylidene CH2CO,ketene    O(CH)2O        
 HO(CO)2OH       C2H3,vinyl      CH3CO,acetyl    C2H4            C2H4O,ethylen-o
 CH3CHO,ethanal  CH3COOH         OHCH2COOH       C2H5            C2H6           
 C2H5OH          CH3OCH3         CH3O2CH3        C2O             *C3            
 C3H3,1-propynl  C3H3,2-propynl  C3H4,allene     C3H4,propyne    C3H4,cyclo-    
 C3H5,allyl      C3H6,propylene  C3H6,cyclo-     C3H6O,propylox  C3H6O,acetone  
 C3H6O,propanal  C3H7,n-propyl   C3H7,i-propyl   C3H8            C3H8O,1propanol
 C3H8O,2propanol C3O2            *C4             C4H2,butadiyne  C4H4,1,3-cyclo-
 C4H6,butadiene  C4H6,1butyne    C4H6,2butyne    C4H6,cyclo-     C4H8,1-butene  
 C4H8,cis2-buten C4H8,tr2-butene C4H8,isobutene  C4H8,cyclo-     (CH3COOH)2     
 C4H9,n-butyl    C4H9,i-butyl    C4H9,s-butyl    C4H9,t-butyl    C4H10,n-butane 
 C4H10,isobutane *C5             C5H6,1,3cyclo-  C5H8,cyclo-     C5H10,1-pentene
 C5H10,cyclo-    C5H11,pentyl    C5H11,t-pentyl  C5H12,n-pentane C5H12,i-pentane
 CH3C(CH3)2CH3   C6H2            C6H5,phenyl     C6H5O,phenoxy   C6H6           
 C6H5OH,phenol   C6H10,cyclo-    C6H12,1-hexene  C6H12,cyclo-    C6H13,n-hexyl  
 C6H14,n-hexane  C7H7,benzyl     C7H8            C7H8O,cresol-mx C7H14,1-heptene
 C7H15,n-heptyl  C7H16,n-heptane C7H16,2-methylh C8H8,styrene    C8H10,ethylbenz
 C8H16,1-octene  C8H17,n-octyl   C8H18,n-octane  C8H18,isooctane C9H19,n-nonyl  
 C10H8,naphthale C10H21,n-decyl  C12H9,o-bipheny C12H10,biphenyl HCO            
 HCCO            HO2             HCHO,formaldehy HCOOH           H2O2           
 (HCOOH)2        *O              *O2             O3              C(gr)          
 H2O(cr)         H2O(L)         

 NOTE. WEIGHT FRACTION OF FUEL IN TOTAL FUELS AND OF OXIDANT IN TOTAL OXIDANTS



=======
 prob rocket fac p,bar=2.04,ac/at=7.6489568487,
 o/f=0.882529230099, pi/pe=1, eq
 react
 	oxid=O2  wt=0.979922261266	t,k=426.33
 	oxid=H2O wt=0.0120466432406	t,k=426.33
 	oxid=CO2 wt=0.00803109549374	t,k=426.33
 	fuel=PMMA  wt=100 t,k=293.15
 	h,kj/mol=-442.14  C 5 H 8 O 2
>>>>>>> fd8aee580c3bf4aa8c70bab476a5ca97f679c53f
