
 *******************************************************************************

         NASA-GLENN CHEMICAL EQUILIBRIUM PROGRAM CEA2, MAY 21, 2004
                   BY  BONNIE MCBRIDE AND SANFORD GORDON
      REFS: NASA RP-1311, PART I, 1994 AND NASA RP-1311, PART II, 1996

 *******************************************************************************



 prob rocket fac p,bar=2.04,ac/at=7.6489568487,
 o/f=0.882529230099, pi/pe=1, eq
 react
 	oxid=O2  wt=0.979922261266	t,k=426.33
 	oxid=H2O wt=0.0120466432406	t,k=426.33
 	oxid=CO2 wt=0.00803109549374	t,k=426.33
 	fuel=PMMA  wt=100 t,k=293.15
 	h,kj/mol=-442.14  C 5 H 8 O 2
