
 *******************************************************************************

         NASA-GLENN CHEMICAL EQUILIBRIUM PROGRAM CEA2, MAY 21, 2004
                   BY  BONNIE MCBRIDE AND SANFORD GORDON
      REFS: NASA RP-1311, PART I, 1994 AND NASA RP-1311, PART II, 1996

 *******************************************************************************



 prob rocket fac p,bar=7.8,ac/at=9.82666272257,
 o/f=0.947042325772, pi/pe=1, eq
 react
 	oxid=O2  wt=0.979183814233	t,k=426.33
 	oxid=H2O wt=0.0124897114603	t,k=426.33
 	oxid=CO2 wt=0.00832647430686	t,k=426.33
 	fuel=PMMA  wt=100 t,k=293.15
 	h,kj/mol=-442.14  C 5 H 8 O 2
 end

 OPTIONS: TP=F  HP=F  SP=F  TV=F  UV=F  SV=F  DETN=F  SHOCK=F  REFL=F  INCD=F
 RKT=T  FROZ=F  EQL=T  IONS=F  SIUNIT=T  DEBUGF=F  SHKDBG=F  DETDBG=T  TRNSPT=F

 TRACE= 0.00E+00  S/R= 0.000000E+00  H/R= 0.000000E+00  U/R= 0.000000E+00

 Pc,BAR =     7.800000

 Pc/P =     1.0000

 SUBSONIC AREA RATIOS =

 SUPERSONIC AREA RATIOS =

 NFZ=  1  Mdot/Ac= 0.000000E+00  Ac/At= 9.826663E+00

    REACTANT          WT.FRAC   (ENERGY/R),K   TEMP,K  DENSITY
        EXPLODED FORMULA
 O: O2               0.979184   0.459707E+03   426.33  0.0000
          O  2.00000
 O: H2O              0.012490  -0.285608E+05   426.33  0.0000
          H  2.00000  O  1.00000
 O: CO2              0.008326  -0.467142E+05   426.33  0.0000
          C  1.00000  O  2.00000
 F: PMMA             1.000000  -0.531769E+05   293.15  0.0000
          C  5.00000  H  8.00000  O  2.00000

  SPECIES BEING CONSIDERED IN THIS SYSTEM
 (CONDENSED PHASE MAY HAVE NAME LISTED SEVERAL TIMES)
  LAST thermo.inp UPDATE:    9/09/04

  g 7/97  *C               tpis79  *CH              g 4/02  CH2            
  g 4/02  CH3              g11/00  CH2OH            g 7/00  CH3O           
  g 8/99  CH4              g 7/00  CH3OH            srd 01  CH3OOH         
  tpis79  *CO              g 9/99  *CO2             tpis91  COOH           
  tpis91  *C2              g 6/01  C2H              g 1/91  C2H2,acetylene 
  g 5/01  C2H2,vinylidene  g 4/02  CH2CO,ketene     g 3/02  O(CH)2O        
  srd 01  HO(CO)2OH        g 7/01  C2H3,vinyl       g 6/96  CH3CO,acetyl   
  g 1/00  C2H4             g 8/88  C2H4O,ethylen-o  g 8/88  CH3CHO,ethanal 
  g 6/00  CH3COOH          srd 01  OHCH2COOH        g 7/00  C2H5           
  g 7/00  C2H6             g 8/88  C2H5OH           g 7/00  CH3OCH3        
  srd 01  CH3O2CH3         g 8/00  C2O              tpis79  *C3            
  n 4/98  C3H3,1-propynl   n 4/98  C3H3,2-propynl   g 2/00  C3H4,allene    
  g 1/00  C3H4,propyne     g 5/90  C3H4,cyclo-      g 3/01  C3H5,allyl     
  g 2/00  C3H6,propylene   g 1/00  C3H6,cyclo-      g 6/01  C3H6O,propylox 
  g 6/97  C3H6O,acetone    g 1/02  C3H6O,propanal   g 7/01  C3H7,n-propyl  
  g 9/85  C3H7,i-propyl    g 2/00  C3H8             g 2/00  C3H8O,1propanol
  g 2/00  C3H8O,2propanol  g 7/88  C3O2             g tpis  *C4            
  g 7/01  C4H2,butadiyne   g 8/00  C4H4,1,3-cyclo-  n10/92  C4H6,butadiene 
  n10/93  C4H6,1butyne     n10/93  C4H6,2butyne     g 8/00  C4H6,cyclo-    
  n 4/88  C4H8,1-butene    n 4/88  C4H8,cis2-buten  n 4/88  C4H8,tr2-butene
  n 4/88  C4H8,isobutene   g 8/00  C4H8,cyclo-      g10/00  (CH3COOH)2     
  n10/84  C4H9,n-butyl     n10/84  C4H9,i-butyl     g 1/93  C4H9,s-butyl   
  g 1/93  C4H9,t-butyl     g12/00  C4H10,n-butane   g 8/00  C4H10,isobutane
  g 8/00  *C5              g 5/90  C5H6,1,3cyclo-   g 1/93  C5H8,cyclo-    
  n 4/87  C5H10,1-pentene  g 2/01  C5H10,cyclo-     n10/84  C5H11,pentyl   
  g 1/93  C5H11,t-pentyl   n10/85  C5H12,n-pentane  n10/85  C5H12,i-pentane
  n10/85  CH3C(CH3)2CH3    g 2/93  C6H2             g11/00  C6H5,phenyl    
  g 8/00  C6H5O,phenoxy    g 8/00  C6H6             g 8/00  C6H5OH,phenol  
  g 1/93  C6H10,cyclo-     n 4/87  C6H12,1-hexene   g 6/90  C6H12,cyclo-   
  n10/83  C6H13,n-hexyl    g 6/01  C6H14,n-hexane   g 7/01  C7H7,benzyl    
  g 1/93  C7H8             g12/00  C7H8O,cresol-mx  n 4/87  C7H14,1-heptene
  n10/83  C7H15,n-heptyl   n10/85  C7H16,n-heptane  n10/85  C7H16,2-methylh
  n 4/89  C8H8,styrene     n10/86  C8H10,ethylbenz  n 4/87  C8H16,1-octene 
  n10/83  C8H17,n-octyl    n 4/85  C8H18,n-octane   n 4/85  C8H18,isooctane
  n10/83  C9H19,n-nonyl    g 3/01  C10H8,naphthale  n10/83  C10H21,n-decyl 
  g 8/00  C12H9,o-bipheny  g 8/00  C12H10,biphenyl  g 6/97  *H             
  g 1/01  HCO              g 6/01  HCCO             g 4/02  HO2            
  tpis78  *H2              g 5/01  HCHO,formaldehy  g 6/01  HCOOH          
  g 8/89  H2O              g 6/99  H2O2             g 6/01  (HCOOH)2       
  g 5/97  *O               g 4/02  *OH              tpis89  *O2            
  g 8/01  O3               n 4/83  C(gr)            n 4/83  C(gr)          
  n 4/83  C(gr)            g11/99  H2O(cr)          g 8/01  H2O(L)         
  g 8/01  H2O(L)         

 O/F =   0.947042

                       EFFECTIVE FUEL     EFFECTIVE OXIDANT        MIXTURE
 ENTHALPY                  h(2)/R              h(1)/R               h0/R
 (KG-MOL)(K)/KG       -0.53115398E+03     -0.14571623E+02     -0.27988807E+03

 KG-FORM.WT./KG             bi(2)               bi(1)               b0i
  *O                   0.19976863E-01      0.62272962E-01      0.40549706E-01
  *H                   0.79907451E-01      0.13865687E-02      0.41714856E-01
  *C                   0.49942157E-01      0.18919720E-03      0.25742293E-01

 POINT ITN      T            O           H           C 
   1   22    2625.115     -19.316      -9.948     -13.116
   2    2    2624.453     -19.319      -9.963     -13.145
 Pinf/Pt = 1.775603
   3    4    2378.148     -20.371     -10.068     -12.844
 Pinf/Pt = 1.785382
   3    2    2375.825     -20.382     -10.068     -12.840
 Pinf/Pt = 1.785463
   3    1    2375.806     -20.382     -10.068     -12.840
   4    2    2622.861     -19.325      -9.964     -13.144
   4    2    2623.675     -19.322      -9.963     -13.144
   4    1    2623.515     -19.322      -9.963     -13.144
   4    1    2623.498     -19.322      -9.963     -13.144
   4    1    2623.498     -19.322      -9.963     -13.144
   2    2    2625.068     -19.316      -9.949     -13.118
 Pinf/Pt = 1.775784
   3    4    2378.356     -20.370     -10.053     -12.815
 Pinf/Pt = 1.785505
   3    2    2376.044     -20.381     -10.054     -12.812
 Pinf/Pt = 1.785585
   3    1    2376.025     -20.381     -10.054     -12.812
   4    2    2623.474     -19.322      -9.950     -13.116
   4    2    2624.289     -19.319      -9.949     -13.117
   4    1    2624.129     -19.320      -9.949     -13.117
   4    1    2624.111     -19.320      -9.949     -13.117
   4    1    2624.111     -19.320      -9.949     -13.117
 END OF CHAMBER ITERATIONS

 WARNING!!  ASSIGNED pip =   1.00000 IS NOT PERMITTED
 TO BE LESS THAN  Pinj/Pc =  1.00441. POINT OMITTED (ROCKET)





              THEORETICAL ROCKET PERFORMANCE ASSUMING EQUILIBRIUM

            COMPOSITION DURING EXPANSION FROM FINITE AREA COMBUSTOR

 Pin =   113.1 PSIA
 Ac/At =  9.8267      Pinj/Pinf =  1.002199
 CASE =                

             REACTANT                    WT FRACTION      ENERGY      TEMP
                                          (SEE NOTE)     KJ/KG-MOL      K  
 OXIDANT     O2                           0.9791838      3822.235    426.330
 OXIDANT     H2O                          0.0124897   -237468.905    426.330
 OXIDANT     CO2                          0.0083265   -388405.803    426.330
 FUEL        PMMA                         1.0000000   -442140.000    293.150

 O/F=    0.94704  %FUEL= 51.359952  R,EQ.RATIO= 1.784033  PHI,EQ.RATIO= 2.067991

                 INJECTOR  COMB END  THROAT
 Pinj/P            1.0000   1.0044   1.7895
 P, BAR            7.8000   7.7657   4.3587
 T, K             2625.11  2624.11  2376.03
 RHO, KG/CU M    7.6339-1 7.6034-1 4.7256-1
 H, KJ/KG        -2327.13 -2329.39 -2890.45
 U, KJ/KG        -3348.88 -3350.74 -3812.82
 G, KJ/KG        -33522.7 -33515.3 -31128.0
 S, KJ/(KG)(K)    11.8835  11.8844  11.8844

 M, (1/n)          21.362   21.362   21.418
 (dLV/dLP)t      -1.00230 -1.00229 -1.00096
 (dLV/dLT)p        1.0509   1.0508   1.0231
 Cp, KJ/(KG)(K)    2.4737   2.4730   2.2294
 GAMMAs            1.2069   1.2070   1.2215
 SON VEL,M/SEC     1110.5   1110.3   1061.4
 MACH NUMBER        0.000    0.060    1.000

 PERFORMANCE PARAMETERS

 Ae/At                      9.8267  1.00000
 CSTAR, M/SEC               1551.6   1551.6
 CF                         0.0433   0.6841
 Ivac, M/SEC               15281.0   1930.4
 Isp, M/SEC                   67.1   1061.4


 MOLE FRACTIONS

 *CO              0.46914  0.46913  0.46548
 *CO2             0.08076  0.08078  0.08588
 *H               0.00694  0.00693  0.00315
 *H2              0.20762  0.20764  0.21423
 H2O              0.23345  0.23344  0.23059
 *O               0.00004  0.00004  0.00001
 *OH              0.00203  0.00203  0.00067
 *O2              0.00002  0.00002  0.00000

  * THERMODYNAMIC PROPERTIES FITTED TO 20000.K

    PRODUCTS WHICH WERE CONSIDERED BUT WHOSE MOLE FRACTIONS
    WERE LESS THAN 5.000000E-06 FOR ALL ASSIGNED CONDITIONS

 *C              *CH             CH2             CH3             CH2OH          
 CH3O            CH4             CH3OH           CH3OOH          COOH           
 *C2             C2H             C2H2,acetylene  C2H2,vinylidene CH2CO,ketene   
 O(CH)2O         HO(CO)2OH       C2H3,vinyl      CH3CO,acetyl    C2H4           
 C2H4O,ethylen-o CH3CHO,ethanal  CH3COOH         OHCH2COOH       C2H5           
 C2H6            C2H5OH          CH3OCH3         CH3O2CH3        C2O            
 *C3             C3H3,1-propynl  C3H3,2-propynl  C3H4,allene     C3H4,propyne   
 C3H4,cyclo-     C3H5,allyl      C3H6,propylene  C3H6,cyclo-     C3H6O,propylox 
 C3H6O,acetone   C3H6O,propanal  C3H7,n-propyl   C3H7,i-propyl   C3H8           
 C3H8O,1propanol C3H8O,2propanol C3O2            *C4             C4H2,butadiyne 
 C4H4,1,3-cyclo- C4H6,butadiene  C4H6,1butyne    C4H6,2butyne    C4H6,cyclo-    
 C4H8,1-butene   C4H8,cis2-buten C4H8,tr2-butene C4H8,isobutene  C4H8,cyclo-    
 (CH3COOH)2      C4H9,n-butyl    C4H9,i-butyl    C4H9,s-butyl    C4H9,t-butyl   
 C4H10,n-butane  C4H10,isobutane *C5             C5H6,1,3cyclo-  C5H8,cyclo-    
 C5H10,1-pentene C5H10,cyclo-    C5H11,pentyl    C5H11,t-pentyl  C5H12,n-pentane
 C5H12,i-pentane CH3C(CH3)2CH3   C6H2            C6H5,phenyl     C6H5O,phenoxy  
 C6H6            C6H5OH,phenol   C6H10,cyclo-    C6H12,1-hexene  C6H12,cyclo-   
 C6H13,n-hexyl   C6H14,n-hexane  C7H7,benzyl     C7H8            C7H8O,cresol-mx
 C7H14,1-heptene C7H15,n-heptyl  C7H16,n-heptane C7H16,2-methylh C8H8,styrene   
 C8H10,ethylbenz C8H16,1-octene  C8H17,n-octyl   C8H18,n-octane  C8H18,isooctane
 C9H19,n-nonyl   C10H8,naphthale C10H21,n-decyl  C12H9,o-bipheny C12H10,biphenyl
 HCO             HCCO            HO2             HCHO,formaldehy HCOOH          
 H2O2            (HCOOH)2        O3              C(gr)           H2O(cr)        
 H2O(L)         

 NOTE. WEIGHT FRACTION OF FUEL IN TOTAL FUELS AND OF OXIDANT IN TOTAL OXIDANTS






 WARNING!!  ASSIGNED pip =   0.00000 IS NOT PERMITTED
 TO BE LESS THAN  Pinj/Pc =  1.00441. POINT OMITTED (ROCKET)





              THEORETICAL ROCKET PERFORMANCE ASSUMING EQUILIBRIUM

            COMPOSITION DURING EXPANSION FROM FINITE AREA COMBUSTOR

 Pin =   113.1 PSIA
 Ac/At =  9.8267      Pinj/Pinf =  1.002199
 CASE =                

             REACTANT                    WT FRACTION      ENERGY      TEMP
                                          (SEE NOTE)     KJ/KG-MOL      K  
 OXIDANT     O2                           0.9791838      3822.235    426.330
 OXIDANT     H2O                          0.0124897   -237468.905    426.330
 OXIDANT     CO2                          0.0083265   -388405.803    426.330
 FUEL        PMMA                         1.0000000   -442140.000    293.150

 O/F=    0.94704  %FUEL= 51.359952  R,EQ.RATIO= 1.784033  PHI,EQ.RATIO= 2.067991

                 INJECTOR  COMB END  THROAT
 Pinj/P            1.0000   1.0044   1.7895
 P, BAR            7.8000   7.7657   4.3587
 T, K             2625.11  2624.11  2376.03
 RHO, KG/CU M    7.6339-1 7.6034-1 4.7256-1
 H, KJ/KG        -2327.13 -2329.39 -2890.45
 U, KJ/KG        -3348.88 -3350.74 -3812.82
 G, KJ/KG        -33522.7 -33515.3 -31128.0
 S, KJ/(KG)(K)    11.8835  11.8844  11.8844

 M, (1/n)          21.362   21.362   21.418
 (dLV/dLP)t      -1.00230 -1.00229 -1.00096
 (dLV/dLT)p        1.0509   1.0508   1.0231
 Cp, KJ/(KG)(K)    2.4737   2.4730   2.2294
 GAMMAs            1.2069   1.2070   1.2215
 SON VEL,M/SEC     1110.5   1110.3   1061.4
 MACH NUMBER        0.000    0.060    1.000

 PERFORMANCE PARAMETERS

 Ae/At                      9.8267  1.00000
 CSTAR, M/SEC               1551.6   1551.6
 CF                         0.0433   0.6841
 Ivac, M/SEC               15281.0   1930.4
 Isp, M/SEC                   67.1   1061.4


 MOLE FRACTIONS

 *CO              0.46914  0.46913  0.46548
 *CO2             0.08076  0.08078  0.08588
 *H               0.00694  0.00693  0.00315
 *H2              0.20762  0.20764  0.21423
 H2O              0.23345  0.23344  0.23059
 *O               0.00004  0.00004  0.00001
 *OH              0.00203  0.00203  0.00067
 *O2              0.00002  0.00002  0.00000

  * THERMODYNAMIC PROPERTIES FITTED TO 20000.K

    PRODUCTS WHICH WERE CONSIDERED BUT WHOSE MOLE FRACTIONS
    WERE LESS THAN 5.000000E-06 FOR ALL ASSIGNED CONDITIONS

 *C              *CH             CH2             CH3             CH2OH          
 CH3O            CH4             CH3OH           CH3OOH          COOH           
 *C2             C2H             C2H2,acetylene  C2H2,vinylidene CH2CO,ketene   
 O(CH)2O         HO(CO)2OH       C2H3,vinyl      CH3CO,acetyl    C2H4           
 C2H4O,ethylen-o CH3CHO,ethanal  CH3COOH         OHCH2COOH       C2H5           
 C2H6            C2H5OH          CH3OCH3         CH3O2CH3        C2O            
 *C3             C3H3,1-propynl  C3H3,2-propynl  C3H4,allene     C3H4,propyne   
 C3H4,cyclo-     C3H5,allyl      C3H6,propylene  C3H6,cyclo-     C3H6O,propylox 
 C3H6O,acetone   C3H6O,propanal  C3H7,n-propyl   C3H7,i-propyl   C3H8           
 C3H8O,1propanol C3H8O,2propanol C3O2            *C4             C4H2,butadiyne 
 C4H4,1,3-cyclo- C4H6,butadiene  C4H6,1butyne    C4H6,2butyne    C4H6,cyclo-    
 C4H8,1-butene   C4H8,cis2-buten C4H8,tr2-butene C4H8,isobutene  C4H8,cyclo-    
 (CH3COOH)2      C4H9,n-butyl    C4H9,i-butyl    C4H9,s-butyl    C4H9,t-butyl   
 C4H10,n-butane  C4H10,isobutane *C5             C5H6,1,3cyclo-  C5H8,cyclo-    
 C5H10,1-pentene C5H10,cyclo-    C5H11,pentyl    C5H11,t-pentyl  C5H12,n-pentane
 C5H12,i-pentane CH3C(CH3)2CH3   C6H2            C6H5,phenyl     C6H5O,phenoxy  
 C6H6            C6H5OH,phenol   C6H10,cyclo-    C6H12,1-hexene  C6H12,cyclo-   
 C6H13,n-hexyl   C6H14,n-hexane  C7H7,benzyl     C7H8            C7H8O,cresol-mx
 C7H14,1-heptene C7H15,n-heptyl  C7H16,n-heptane C7H16,2-methylh C8H8,styrene   
 C8H10,ethylbenz C8H16,1-octene  C8H17,n-octyl   C8H18,n-octane  C8H18,isooctane
 C9H19,n-nonyl   C10H8,naphthale C10H21,n-decyl  C12H9,o-bipheny C12H10,biphenyl
 HCO             HCCO            HO2             HCHO,formaldehy HCOOH          
 H2O2            (HCOOH)2        O3              C(gr)           H2O(cr)        
 H2O(L)         

 NOTE. WEIGHT FRACTION OF FUEL IN TOTAL FUELS AND OF OXIDANT IN TOTAL OXIDANTS






 WARNING!!  ASSIGNED pip =   0.00000 IS NOT PERMITTED
 TO BE LESS THAN  Pinj/Pc =  1.00441. POINT OMITTED (ROCKET)





              THEORETICAL ROCKET PERFORMANCE ASSUMING EQUILIBRIUM

            COMPOSITION DURING EXPANSION FROM FINITE AREA COMBUSTOR

 Pin =   113.1 PSIA
 Ac/At =  9.8267      Pinj/Pinf =  1.002199
 CASE =                

             REACTANT                    WT FRACTION      ENERGY      TEMP
                                          (SEE NOTE)     KJ/KG-MOL      K  
 OXIDANT     O2                           0.9791838      3822.235    426.330
 OXIDANT     H2O                          0.0124897   -237468.905    426.330
 OXIDANT     CO2                          0.0083265   -388405.803    426.330
 FUEL        PMMA                         1.0000000   -442140.000    293.150

 O/F=    0.94704  %FUEL= 51.359952  R,EQ.RATIO= 1.784033  PHI,EQ.RATIO= 2.067991

                 INJECTOR  COMB END  THROAT
 Pinj/P            1.0000   1.0044   1.7895
 P, BAR            7.8000   7.7657   4.3587
 T, K             2625.11  2624.11  2376.03
 RHO, KG/CU M    7.6339-1 7.6034-1 4.7256-1
 H, KJ/KG        -2327.13 -2329.39 -2890.45
 U, KJ/KG        -3348.88 -3350.74 -3812.82
 G, KJ/KG        -33522.7 -33515.3 -31128.0
 S, KJ/(KG)(K)    11.8835  11.8844  11.8844

 M, (1/n)          21.362   21.362   21.418
 (dLV/dLP)t      -1.00230 -1.00229 -1.00096
 (dLV/dLT)p        1.0509   1.0508   1.0231
 Cp, KJ/(KG)(K)    2.4737   2.4730   2.2294
 GAMMAs            1.2069   1.2070   1.2215
 SON VEL,M/SEC     1110.5   1110.3   1061.4
 MACH NUMBER        0.000    0.060    1.000

 PERFORMANCE PARAMETERS

 Ae/At                      9.8267  1.00000
 CSTAR, M/SEC               1551.6   1551.6
 CF                         0.0433   0.6841
 Ivac, M/SEC               15281.0   1930.4
 Isp, M/SEC                   67.1   1061.4


 MOLE FRACTIONS

 *CO              0.46914  0.46913  0.46548
 *CO2             0.08076  0.08078  0.08588
 *H               0.00694  0.00693  0.00315
 *H2              0.20762  0.20764  0.21423
 H2O              0.23345  0.23344  0.23059
 *O               0.00004  0.00004  0.00001
 *OH              0.00203  0.00203  0.00067
 *O2              0.00002  0.00002  0.00000

  * THERMODYNAMIC PROPERTIES FITTED TO 20000.K

    PRODUCTS WHICH WERE CONSIDERED BUT WHOSE MOLE FRACTIONS
    WERE LESS THAN 5.000000E-06 FOR ALL ASSIGNED CONDITIONS

 *C              *CH             CH2             CH3             CH2OH          
 CH3O            CH4             CH3OH           CH3OOH          COOH           
 *C2             C2H             C2H2,acetylene  C2H2,vinylidene CH2CO,ketene   
 O(CH)2O         HO(CO)2OH       C2H3,vinyl      CH3CO,acetyl    C2H4           
 C2H4O,ethylen-o CH3CHO,ethanal  CH3COOH         OHCH2COOH       C2H5           
 C2H6            C2H5OH          CH3OCH3         CH3O2CH3        C2O            
 *C3             C3H3,1-propynl  C3H3,2-propynl  C3H4,allene     C3H4,propyne   
 C3H4,cyclo-     C3H5,allyl      C3H6,propylene  C3H6,cyclo-     C3H6O,propylox 
 C3H6O,acetone   C3H6O,propanal  C3H7,n-propyl   C3H7,i-propyl   C3H8           
 C3H8O,1propanol C3H8O,2propanol C3O2            *C4             C4H2,butadiyne 
 C4H4,1,3-cyclo- C4H6,butadiene  C4H6,1butyne    C4H6,2butyne    C4H6,cyclo-    
 C4H8,1-butene   C4H8,cis2-buten C4H8,tr2-butene C4H8,isobutene  C4H8,cyclo-    
 (CH3COOH)2      C4H9,n-butyl    C4H9,i-butyl    C4H9,s-butyl    C4H9,t-butyl   
 C4H10,n-butane  C4H10,isobutane *C5             C5H6,1,3cyclo-  C5H8,cyclo-    
 C5H10,1-pentene C5H10,cyclo-    C5H11,pentyl    C5H11,t-pentyl  C5H12,n-pentane
 C5H12,i-pentane CH3C(CH3)2CH3   C6H2            C6H5,phenyl     C6H5O,phenoxy  
 C6H6            C6H5OH,phenol   C6H10,cyclo-    C6H12,1-hexene  C6H12,cyclo-   
 C6H13,n-hexyl   C6H14,n-hexane  C7H7,benzyl     C7H8            C7H8O,cresol-mx
 C7H14,1-heptene C7H15,n-heptyl  C7H16,n-heptane C7H16,2-methylh C8H8,styrene   
 C8H10,ethylbenz C8H16,1-octene  C8H17,n-octyl   C8H18,n-octane  C8H18,isooctane
 C9H19,n-nonyl   C10H8,naphthale C10H21,n-decyl  C12H9,o-bipheny C12H10,biphenyl
 HCO             HCCO            HO2             HCHO,formaldehy HCOOH          
 H2O2            (HCOOH)2        O3              C(gr)           H2O(cr)        
 H2O(L)         

 NOTE. WEIGHT FRACTION OF FUEL IN TOTAL FUELS AND OF OXIDANT IN TOTAL OXIDANTS






 WARNING!!  ASSIGNED pip =   0.00000 IS NOT PERMITTED
 TO BE LESS THAN  Pinj/Pc =  1.00441. POINT OMITTED (ROCKET)





              THEORETICAL ROCKET PERFORMANCE ASSUMING EQUILIBRIUM

            COMPOSITION DURING EXPANSION FROM FINITE AREA COMBUSTOR

 Pin =   113.1 PSIA
 Ac/At =  9.8267      Pinj/Pinf =  1.002199
 CASE =                

             REACTANT                    WT FRACTION      ENERGY      TEMP
                                          (SEE NOTE)     KJ/KG-MOL      K  
 OXIDANT     O2                           0.9791838      3822.235    426.330
 OXIDANT     H2O                          0.0124897   -237468.905    426.330
 OXIDANT     CO2                          0.0083265   -388405.803    426.330
 FUEL        PMMA                         1.0000000   -442140.000    293.150

 O/F=    0.94704  %FUEL= 51.359952  R,EQ.RATIO= 1.784033  PHI,EQ.RATIO= 2.067991

                 INJECTOR  COMB END  THROAT
 Pinj/P            1.0000   1.0044   1.7895
 P, BAR            7.8000   7.7657   4.3587
 T, K             2625.11  2624.11  2376.03
 RHO, KG/CU M    7.6339-1 7.6034-1 4.7256-1
 H, KJ/KG        -2327.13 -2329.39 -2890.45
 U, KJ/KG        -3348.88 -3350.74 -3812.82
 G, KJ/KG        -33522.7 -33515.3 -31128.0
 S, KJ/(KG)(K)    11.8835  11.8844  11.8844

 M, (1/n)          21.362   21.362   21.418
 (dLV/dLP)t      -1.00230 -1.00229 -1.00096
 (dLV/dLT)p        1.0509   1.0508   1.0231
 Cp, KJ/(KG)(K)    2.4737   2.4730   2.2294
 GAMMAs            1.2069   1.2070   1.2215
 SON VEL,M/SEC     1110.5   1110.3   1061.4
 MACH NUMBER        0.000    0.060    1.000

 PERFORMANCE PARAMETERS

 Ae/At                      9.8267  1.00000
 CSTAR, M/SEC               1551.6   1551.6
 CF                         0.0433   0.6841
 Ivac, M/SEC               15281.0   1930.4
 Isp, M/SEC                   67.1   1061.4


 MOLE FRACTIONS

 *CO              0.46914  0.46913  0.46548
 *CO2             0.08076  0.08078  0.08588
 *H               0.00694  0.00693  0.00315
 *H2              0.20762  0.20764  0.21423
 H2O              0.23345  0.23344  0.23059
 *O               0.00004  0.00004  0.00001
 *OH              0.00203  0.00203  0.00067
 *O2              0.00002  0.00002  0.00000

  * THERMODYNAMIC PROPERTIES FITTED TO 20000.K

    PRODUCTS WHICH WERE CONSIDERED BUT WHOSE MOLE FRACTIONS
    WERE LESS THAN 5.000000E-06 FOR ALL ASSIGNED CONDITIONS

 *C              *CH             CH2             CH3             CH2OH          
 CH3O            CH4             CH3OH           CH3OOH          COOH           
 *C2             C2H             C2H2,acetylene  C2H2,vinylidene CH2CO,ketene   
 O(CH)2O         HO(CO)2OH       C2H3,vinyl      CH3CO,acetyl    C2H4           
 C2H4O,ethylen-o CH3CHO,ethanal  CH3COOH         OHCH2COOH       C2H5           
 C2H6            C2H5OH          CH3OCH3         CH3O2CH3        C2O            
 *C3             C3H3,1-propynl  C3H3,2-propynl  C3H4,allene     C3H4,propyne   
 C3H4,cyclo-     C3H5,allyl      C3H6,propylene  C3H6,cyclo-     C3H6O,propylox 
 C3H6O,acetone   C3H6O,propanal  C3H7,n-propyl   C3H7,i-propyl   C3H8           
 C3H8O,1propanol C3H8O,2propanol C3O2            *C4             C4H2,butadiyne 
 C4H4,1,3-cyclo- C4H6,butadiene  C4H6,1butyne    C4H6,2butyne    C4H6,cyclo-    
 C4H8,1-butene   C4H8,cis2-buten C4H8,tr2-butene C4H8,isobutene  C4H8,cyclo-    
 (CH3COOH)2      C4H9,n-butyl    C4H9,i-butyl    C4H9,s-butyl    C4H9,t-butyl   
 C4H10,n-butane  C4H10,isobutane *C5             C5H6,1,3cyclo-  C5H8,cyclo-    
 C5H10,1-pentene C5H10,cyclo-    C5H11,pentyl    C5H11,t-pentyl  C5H12,n-pentane
 C5H12,i-pentane CH3C(CH3)2CH3   C6H2            C6H5,phenyl     C6H5O,phenoxy  
 C6H6            C6H5OH,phenol   C6H10,cyclo-    C6H12,1-hexene  C6H12,cyclo-   
 C6H13,n-hexyl   C6H14,n-hexane  C7H7,benzyl     C7H8            C7H8O,cresol-mx
 C7H14,1-heptene C7H15,n-heptyl  C7H16,n-heptane C7H16,2-methylh C8H8,styrene   
 C8H10,ethylbenz C8H16,1-octene  C8H17,n-octyl   C8H18,n-octane  C8H18,isooctane
 C9H19,n-nonyl   C10H8,naphthale C10H21,n-decyl  C12H9,o-bipheny C12H10,biphenyl
 HCO             HCCO            HO2             HCHO,formaldehy HCOOH          
 H2O2            (HCOOH)2        O3              C(gr)           H2O(cr)        
 H2O(L)         

 NOTE. WEIGHT FRACTION OF FUEL IN TOTAL FUELS AND OF OXIDANT IN TOTAL OXIDANTS






 WARNING!!  ASSIGNED pip =   0.00000 IS NOT PERMITTED
 TO BE LESS THAN  Pinj/Pc =  1.00441. POINT OMITTED (ROCKET)





              THEORETICAL ROCKET PERFORMANCE ASSUMING EQUILIBRIUM

            COMPOSITION DURING EXPANSION FROM FINITE AREA COMBUSTOR

 Pin =   113.1 PSIA
 Ac/At =  9.8267      Pinj/Pinf =  1.002199
 CASE =                

             REACTANT                    WT FRACTION      ENERGY      TEMP
                                          (SEE NOTE)     KJ/KG-MOL      K  
 OXIDANT     O2                           0.9791838      3822.235    426.330
 OXIDANT     H2O                          0.0124897   -237468.905    426.330
 OXIDANT     CO2                          0.0083265   -388405.803    426.330
 FUEL        PMMA                         1.0000000   -442140.000    293.150

 O/F=    0.94704  %FUEL= 51.359952  R,EQ.RATIO= 1.784033  PHI,EQ.RATIO= 2.067991

                 INJECTOR  COMB END  THROAT
 Pinj/P            1.0000   1.0044   1.7895
 P, BAR            7.8000   7.7657   4.3587
 T, K             2625.11  2624.11  2376.03
 RHO, KG/CU M    7.6339-1 7.6034-1 4.7256-1
 H, KJ/KG        -2327.13 -2329.39 -2890.45
 U, KJ/KG        -3348.88 -3350.74 -3812.82
 G, KJ/KG        -33522.7 -33515.3 -31128.0
 S, KJ/(KG)(K)    11.8835  11.8844  11.8844

 M, (1/n)          21.362   21.362   21.418
 (dLV/dLP)t      -1.00230 -1.00229 -1.00096
 (dLV/dLT)p        1.0509   1.0508   1.0231
 Cp, KJ/(KG)(K)    2.4737   2.4730   2.2294
 GAMMAs            1.2069   1.2070   1.2215
 SON VEL,M/SEC     1110.5   1110.3   1061.4
 MACH NUMBER        0.000    0.060    1.000

 PERFORMANCE PARAMETERS

 Ae/At                      9.8267  1.00000
 CSTAR, M/SEC               1551.6   1551.6
 CF                         0.0433   0.6841
 Ivac, M/SEC               15281.0   1930.4
 Isp, M/SEC                   67.1   1061.4


 MOLE FRACTIONS

 *CO              0.46914  0.46913  0.46548
 *CO2             0.08076  0.08078  0.08588
 *H               0.00694  0.00693  0.00315
 *H2              0.20762  0.20764  0.21423
 H2O              0.23345  0.23344  0.23059
 *O               0.00004  0.00004  0.00001
 *OH              0.00203  0.00203  0.00067
 *O2              0.00002  0.00002  0.00000

  * THERMODYNAMIC PROPERTIES FITTED TO 20000.K

    PRODUCTS WHICH WERE CONSIDERED BUT WHOSE MOLE FRACTIONS
    WERE LESS THAN 5.000000E-06 FOR ALL ASSIGNED CONDITIONS

 *C              *CH             CH2             CH3             CH2OH          
 CH3O            CH4             CH3OH           CH3OOH          COOH           
 *C2             C2H             C2H2,acetylene  C2H2,vinylidene CH2CO,ketene   
 O(CH)2O         HO(CO)2OH       C2H3,vinyl      CH3CO,acetyl    C2H4           
 C2H4O,ethylen-o CH3CHO,ethanal  CH3COOH         OHCH2COOH       C2H5           
 C2H6            C2H5OH          CH3OCH3         CH3O2CH3        C2O            
 *C3             C3H3,1-propynl  C3H3,2-propynl  C3H4,allene     C3H4,propyne   
 C3H4,cyclo-     C3H5,allyl      C3H6,propylene  C3H6,cyclo-     C3H6O,propylox 
 C3H6O,acetone   C3H6O,propanal  C3H7,n-propyl   C3H7,i-propyl   C3H8           
 C3H8O,1propanol C3H8O,2propanol C3O2            *C4             C4H2,butadiyne 
 C4H4,1,3-cyclo- C4H6,butadiene  C4H6,1butyne    C4H6,2butyne    C4H6,cyclo-    
 C4H8,1-butene   C4H8,cis2-buten C4H8,tr2-butene C4H8,isobutene  C4H8,cyclo-    
 (CH3COOH)2      C4H9,n-butyl    C4H9,i-butyl    C4H9,s-butyl    C4H9,t-butyl   
 C4H10,n-butane  C4H10,isobutane *C5             C5H6,1,3cyclo-  C5H8,cyclo-    
 C5H10,1-pentene C5H10,cyclo-    C5H11,pentyl    C5H11,t-pentyl  C5H12,n-pentane
 C5H12,i-pentane CH3C(CH3)2CH3   C6H2            C6H5,phenyl     C6H5O,phenoxy  
 C6H6            C6H5OH,phenol   C6H10,cyclo-    C6H12,1-hexene  C6H12,cyclo-   
 C6H13,n-hexyl   C6H14,n-hexane  C7H7,benzyl     C7H8            C7H8O,cresol-mx
 C7H14,1-heptene C7H15,n-heptyl  C7H16,n-heptane C7H16,2-methylh C8H8,styrene   
 C8H10,ethylbenz C8H16,1-octene  C8H17,n-octyl   C8H18,n-octane  C8H18,isooctane
 C9H19,n-nonyl   C10H8,naphthale C10H21,n-decyl  C12H9,o-bipheny C12H10,biphenyl
 HCO             HCCO            HO2             HCHO,formaldehy HCOOH          
 H2O2            (HCOOH)2        O3              C(gr)           H2O(cr)        
 H2O(L)         

 NOTE. WEIGHT FRACTION OF FUEL IN TOTAL FUELS AND OF OXIDANT IN TOTAL OXIDANTS






 WARNING!!  ASSIGNED pip =   0.00000 IS NOT PERMITTED
 TO BE LESS THAN  Pinj/Pc =  1.00441. POINT OMITTED (ROCKET)





              THEORETICAL ROCKET PERFORMANCE ASSUMING EQUILIBRIUM

            COMPOSITION DURING EXPANSION FROM FINITE AREA COMBUSTOR

 Pin =   113.1 PSIA
 Ac/At =  9.8267      Pinj/Pinf =  1.002199
 CASE =                

             REACTANT                    WT FRACTION      ENERGY      TEMP
                                          (SEE NOTE)     KJ/KG-MOL      K  
 OXIDANT     O2                           0.9791838      3822.235    426.330
 OXIDANT     H2O                          0.0124897   -237468.905    426.330
 OXIDANT     CO2                          0.0083265   -388405.803    426.330
 FUEL        PMMA                         1.0000000   -442140.000    293.150

 O/F=    0.94704  %FUEL= 51.359952  R,EQ.RATIO= 1.784033  PHI,EQ.RATIO= 2.067991

                 INJECTOR  COMB END  THROAT
 Pinj/P            1.0000   1.0044   1.7895
 P, BAR            7.8000   7.7657   4.3587
 T, K             2625.11  2624.11  2376.03
 RHO, KG/CU M    7.6339-1 7.6034-1 4.7256-1
 H, KJ/KG        -2327.13 -2329.39 -2890.45
 U, KJ/KG        -3348.88 -3350.74 -3812.82
 G, KJ/KG        -33522.7 -33515.3 -31128.0
 S, KJ/(KG)(K)    11.8835  11.8844  11.8844

 M, (1/n)          21.362   21.362   21.418
 (dLV/dLP)t      -1.00230 -1.00229 -1.00096
 (dLV/dLT)p        1.0509   1.0508   1.0231
 Cp, KJ/(KG)(K)    2.4737   2.4730   2.2294
 GAMMAs            1.2069   1.2070   1.2215
 SON VEL,M/SEC     1110.5   1110.3   1061.4
 MACH NUMBER        0.000    0.060    1.000

 PERFORMANCE PARAMETERS

 Ae/At                      9.8267  1.00000
 CSTAR, M/SEC               1551.6   1551.6
 CF                         0.0433   0.6841
 Ivac, M/SEC               15281.0   1930.4
 Isp, M/SEC                   67.1   1061.4


 MOLE FRACTIONS

 *CO              0.46914  0.46913  0.46548
 *CO2             0.08076  0.08078  0.08588
 *H               0.00694  0.00693  0.00315
 *H2              0.20762  0.20764  0.21423
 H2O              0.23345  0.23344  0.23059
 *O               0.00004  0.00004  0.00001
 *OH              0.00203  0.00203  0.00067
 *O2              0.00002  0.00002  0.00000

  * THERMODYNAMIC PROPERTIES FITTED TO 20000.K

    PRODUCTS WHICH WERE CONSIDERED BUT WHOSE MOLE FRACTIONS
    WERE LESS THAN 5.000000E-06 FOR ALL ASSIGNED CONDITIONS

 *C              *CH             CH2             CH3             CH2OH          
 CH3O            CH4             CH3OH           CH3OOH          COOH           
 *C2             C2H             C2H2,acetylene  C2H2,vinylidene CH2CO,ketene   
 O(CH)2O         HO(CO)2OH       C2H3,vinyl      CH3CO,acetyl    C2H4           
 C2H4O,ethylen-o CH3CHO,ethanal  CH3COOH         OHCH2COOH       C2H5           
 C2H6            C2H5OH          CH3OCH3         CH3O2CH3        C2O            
 *C3             C3H3,1-propynl  C3H3,2-propynl  C3H4,allene     C3H4,propyne   
 C3H4,cyclo-     C3H5,allyl      C3H6,propylene  C3H6,cyclo-     C3H6O,propylox 
 C3H6O,acetone   C3H6O,propanal  C3H7,n-propyl   C3H7,i-propyl   C3H8           
 C3H8O,1propanol C3H8O,2propanol C3O2            *C4             C4H2,butadiyne 
 C4H4,1,3-cyclo- C4H6,butadiene  C4H6,1butyne    C4H6,2butyne    C4H6,cyclo-    
 C4H8,1-butene   C4H8,cis2-buten C4H8,tr2-butene C4H8,isobutene  C4H8,cyclo-    
 (CH3COOH)2      C4H9,n-butyl    C4H9,i-butyl    C4H9,s-butyl    C4H9,t-butyl   
 C4H10,n-butane  C4H10,isobutane *C5             C5H6,1,3cyclo-  C5H8,cyclo-    
 C5H10,1-pentene C5H10,cyclo-    C5H11,pentyl    C5H11,t-pentyl  C5H12,n-pentane
 C5H12,i-pentane CH3C(CH3)2CH3   C6H2            C6H5,phenyl     C6H5O,phenoxy  
 C6H6            C6H5OH,phenol   C6H10,cyclo-    C6H12,1-hexene  C6H12,cyclo-   
 C6H13,n-hexyl   C6H14,n-hexane  C7H7,benzyl     C7H8            C7H8O,cresol-mx
 C7H14,1-heptene C7H15,n-heptyl  C7H16,n-heptane C7H16,2-methylh C8H8,styrene   
 C8H10,ethylbenz C8H16,1-octene  C8H17,n-octyl   C8H18,n-octane  C8H18,isooctane
 C9H19,n-nonyl   C10H8,naphthale C10H21,n-decyl  C12H9,o-bipheny C12H10,biphenyl
 HCO             HCCO            HO2             HCHO,formaldehy HCOOH          
 H2O2            (HCOOH)2        O3              C(gr)           H2O(cr)        
 H2O(L)         

 NOTE. WEIGHT FRACTION OF FUEL IN TOTAL FUELS AND OF OXIDANT IN TOTAL OXIDANTS






 WARNING!!  ASSIGNED pip =   0.00000 IS NOT PERMITTED
 TO BE LESS THAN  Pinj/Pc =  1.00441. POINT OMITTED (ROCKET)





              THEORETICAL ROCKET PERFORMANCE ASSUMING EQUILIBRIUM

            COMPOSITION DURING EXPANSION FROM FINITE AREA COMBUSTOR

 Pin =   113.1 PSIA
 Ac/At =  9.8267      Pinj/Pinf =  1.002199
 CASE =                

             REACTANT                    WT FRACTION      ENERGY      TEMP
                                          (SEE NOTE)     KJ/KG-MOL      K  
 OXIDANT     O2                           0.9791838      3822.235    426.330
 OXIDANT     H2O                          0.0124897   -237468.905    426.330
 OXIDANT     CO2                          0.0083265   -388405.803    426.330
 FUEL        PMMA                         1.0000000   -442140.000    293.150

 O/F=    0.94704  %FUEL= 51.359952  R,EQ.RATIO= 1.784033  PHI,EQ.RATIO= 2.067991

                 INJECTOR  COMB END  THROAT
 Pinj/P            1.0000   1.0044   1.7895
 P, BAR            7.8000   7.7657   4.3587
 T, K             2625.11  2624.11  2376.03
 RHO, KG/CU M    7.6339-1 7.6034-1 4.7256-1
 H, KJ/KG        -2327.13 -2329.39 -2890.45
 U, KJ/KG        -3348.88 -3350.74 -3812.82
 G, KJ/KG        -33522.7 -33515.3 -31128.0
 S, KJ/(KG)(K)    11.8835  11.8844  11.8844

 M, (1/n)          21.362   21.362   21.418
 (dLV/dLP)t      -1.00230 -1.00229 -1.00096
 (dLV/dLT)p        1.0509   1.0508   1.0231
 Cp, KJ/(KG)(K)    2.4737   2.4730   2.2294
 GAMMAs            1.2069   1.2070   1.2215
 SON VEL,M/SEC     1110.5   1110.3   1061.4
 MACH NUMBER        0.000    0.060    1.000

 PERFORMANCE PARAMETERS

 Ae/At                      9.8267  1.00000
 CSTAR, M/SEC               1551.6   1551.6
 CF                         0.0433   0.6841
 Ivac, M/SEC               15281.0   1930.4
 Isp, M/SEC                   67.1   1061.4


 MOLE FRACTIONS

 *CO              0.46914  0.46913  0.46548
 *CO2             0.08076  0.08078  0.08588
 *H               0.00694  0.00693  0.00315
 *H2              0.20762  0.20764  0.21423
 H2O              0.23345  0.23344  0.23059
 *O               0.00004  0.00004  0.00001
 *OH              0.00203  0.00203  0.00067
 *O2              0.00002  0.00002  0.00000

  * THERMODYNAMIC PROPERTIES FITTED TO 20000.K

    PRODUCTS WHICH WERE CONSIDERED BUT WHOSE MOLE FRACTIONS
    WERE LESS THAN 5.000000E-06 FOR ALL ASSIGNED CONDITIONS

 *C              *CH             CH2             CH3             CH2OH          
 CH3O            CH4             CH3OH           CH3OOH          COOH           
 *C2             C2H             C2H2,acetylene  C2H2,vinylidene CH2CO,ketene   
 O(CH)2O         HO(CO)2OH       C2H3,vinyl      CH3CO,acetyl    C2H4           
 C2H4O,ethylen-o CH3CHO,ethanal  CH3COOH         OHCH2COOH       C2H5           
 C2H6            C2H5OH          CH3OCH3         CH3O2CH3        C2O            
 *C3             C3H3,1-propynl  C3H3,2-propynl  C3H4,allene     C3H4,propyne   
 C3H4,cyclo-     C3H5,allyl      C3H6,propylene  C3H6,cyclo-     C3H6O,propylox 
 C3H6O,acetone   C3H6O,propanal  C3H7,n-propyl   C3H7,i-propyl   C3H8           
 C3H8O,1propanol C3H8O,2propanol C3O2            *C4             C4H2,butadiyne 
 C4H4,1,3-cyclo- C4H6,butadiene  C4H6,1butyne    C4H6,2butyne    C4H6,cyclo-    
 C4H8,1-butene   C4H8,cis2-buten C4H8,tr2-butene C4H8,isobutene  C4H8,cyclo-    
 (CH3COOH)2      C4H9,n-butyl    C4H9,i-butyl    C4H9,s-butyl    C4H9,t-butyl   
 C4H10,n-butane  C4H10,isobutane *C5             C5H6,1,3cyclo-  C5H8,cyclo-    
 C5H10,1-pentene C5H10,cyclo-    C5H11,pentyl    C5H11,t-pentyl  C5H12,n-pentane
 C5H12,i-pentane CH3C(CH3)2CH3   C6H2            C6H5,phenyl     C6H5O,phenoxy  
 C6H6            C6H5OH,phenol   C6H10,cyclo-    C6H12,1-hexene  C6H12,cyclo-   
 C6H13,n-hexyl   C6H14,n-hexane  C7H7,benzyl     C7H8            C7H8O,cresol-mx
 C7H14,1-heptene C7H15,n-heptyl  C7H16,n-heptane C7H16,2-methylh C8H8,styrene   
 C8H10,ethylbenz C8H16,1-octene  C8H17,n-octyl   C8H18,n-octane  C8H18,isooctane
 C9H19,n-nonyl   C10H8,naphthale C10H21,n-decyl  C12H9,o-bipheny C12H10,biphenyl
 HCO             HCCO            HO2             HCHO,formaldehy HCOOH          
 H2O2            (HCOOH)2        O3              C(gr)           H2O(cr)        
 H2O(L)         

 NOTE. WEIGHT FRACTION OF FUEL IN TOTAL FUELS AND OF OXIDANT IN TOTAL OXIDANTS






 WARNING!!  ASSIGNED pip =   0.00000 IS NOT PERMITTED
 TO BE LESS THAN  Pinj/Pc =  1.00441. POINT OMITTED (ROCKET)





              THEORETICAL ROCKET PERFORMANCE ASSUMING EQUILIBRIUM

            COMPOSITION DURING EXPANSION FROM FINITE AREA COMBUSTOR

 Pin =   113.1 PSIA
 Ac/At =  9.8267      Pinj/Pinf =  1.002199
 CASE =                

             REACTANT                    WT FRACTION      ENERGY      TEMP
                                          (SEE NOTE)     KJ/KG-MOL      K  
 OXIDANT     O2                           0.9791838      3822.235    426.330
 OXIDANT     H2O                          0.0124897   -237468.905    426.330
 OXIDANT     CO2                          0.0083265   -388405.803    426.330
 FUEL        PMMA                         1.0000000   -442140.000    293.150

 O/F=    0.94704  %FUEL= 51.359952  R,EQ.RATIO= 1.784033  PHI,EQ.RATIO= 2.067991

                 INJECTOR  COMB END  THROAT
 Pinj/P            1.0000   1.0044   1.7895
 P, BAR            7.8000   7.7657   4.3587
 T, K             2625.11  2624.11  2376.03
 RHO, KG/CU M    7.6339-1 7.6034-1 4.7256-1
 H, KJ/KG        -2327.13 -2329.39 -2890.45
 U, KJ/KG        -3348.88 -3350.74 -3812.82
 G, KJ/KG        -33522.7 -33515.3 -31128.0
 S, KJ/(KG)(K)    11.8835  11.8844  11.8844

 M, (1/n)          21.362   21.362   21.418
 (dLV/dLP)t      -1.00230 -1.00229 -1.00096
 (dLV/dLT)p        1.0509   1.0508   1.0231
 Cp, KJ/(KG)(K)    2.4737   2.4730   2.2294
 GAMMAs            1.2069   1.2070   1.2215
 SON VEL,M/SEC     1110.5   1110.3   1061.4
 MACH NUMBER        0.000    0.060    1.000

 PERFORMANCE PARAMETERS

 Ae/At                      9.8267  1.00000
 CSTAR, M/SEC               1551.6   1551.6
 CF                         0.0433   0.6841
 Ivac, M/SEC               15281.0   1930.4
 Isp, M/SEC                   67.1   1061.4


 MOLE FRACTIONS

 *CO              0.46914  0.46913  0.46548
 *CO2             0.08076  0.08078  0.08588
 *H               0.00694  0.00693  0.00315
 *H2              0.20762  0.20764  0.21423
 H2O              0.23345  0.23344  0.23059
 *O               0.00004  0.00004  0.00001
 *OH              0.00203  0.00203  0.00067
 *O2              0.00002  0.00002  0.00000

  * THERMODYNAMIC PROPERTIES FITTED TO 20000.K

    PRODUCTS WHICH WERE CONSIDERED BUT WHOSE MOLE FRACTIONS
    WERE LESS THAN 5.000000E-06 FOR ALL ASSIGNED CONDITIONS

 *C              *CH             CH2             CH3             CH2OH          
 CH3O            CH4             CH3OH           CH3OOH          COOH           
 *C2             C2H             C2H2,acetylene  C2H2,vinylidene CH2CO,ketene   
 O(CH)2O         HO(CO)2OH       C2H3,vinyl      CH3CO,acetyl    C2H4           
 C2H4O,ethylen-o CH3CHO,ethanal  CH3COOH         OHCH2COOH       C2H5           
 C2H6            C2H5OH          CH3OCH3         CH3O2CH3        C2O            
 *C3             C3H3,1-propynl  C3H3,2-propynl  C3H4,allene     C3H4,propyne   
 C3H4,cyclo-     C3H5,allyl      C3H6,propylene  C3H6,cyclo-     C3H6O,propylox 
 C3H6O,acetone   C3H6O,propanal  C3H7,n-propyl   C3H7,i-propyl   C3H8           
 C3H8O,1propanol C3H8O,2propanol C3O2            *C4             C4H2,butadiyne 
 C4H4,1,3-cyclo- C4H6,butadiene  C4H6,1butyne    C4H6,2butyne    C4H6,cyclo-    
 C4H8,1-butene   C4H8,cis2-buten C4H8,tr2-butene C4H8,isobutene  C4H8,cyclo-    
 (CH3COOH)2      C4H9,n-butyl    C4H9,i-butyl    C4H9,s-butyl    C4H9,t-butyl   
 C4H10,n-butane  C4H10,isobutane *C5             C5H6,1,3cyclo-  C5H8,cyclo-    
 C5H10,1-pentene C5H10,cyclo-    C5H11,pentyl    C5H11,t-pentyl  C5H12,n-pentane
 C5H12,i-pentane CH3C(CH3)2CH3   C6H2            C6H5,phenyl     C6H5O,phenoxy  
 C6H6            C6H5OH,phenol   C6H10,cyclo-    C6H12,1-hexene  C6H12,cyclo-   
 C6H13,n-hexyl   C6H14,n-hexane  C7H7,benzyl     C7H8            C7H8O,cresol-mx
 C7H14,1-heptene C7H15,n-heptyl  C7H16,n-heptane C7H16,2-methylh C8H8,styrene   
 C8H10,ethylbenz C8H16,1-octene  C8H17,n-octyl   C8H18,n-octane  C8H18,isooctane
 C9H19,n-nonyl   C10H8,naphthale C10H21,n-decyl  C12H9,o-bipheny C12H10,biphenyl
 HCO             HCCO            HO2             HCHO,formaldehy HCOOH          
 H2O2            (HCOOH)2        O3              C(gr)           H2O(cr)        
 H2O(L)         

 NOTE. WEIGHT FRACTION OF FUEL IN TOTAL FUELS AND OF OXIDANT IN TOTAL OXIDANTS






 WARNING!!  ASSIGNED pip =   0.00000 IS NOT PERMITTED
 TO BE LESS THAN  Pinj/Pc =  1.00441. POINT OMITTED (ROCKET)





              THEORETICAL ROCKET PERFORMANCE ASSUMING EQUILIBRIUM

            COMPOSITION DURING EXPANSION FROM FINITE AREA COMBUSTOR

 Pin =   113.1 PSIA
 Ac/At =  9.8267      Pinj/Pinf =  1.002199
 CASE =                

             REACTANT                    WT FRACTION      ENERGY      TEMP
                                          (SEE NOTE)     KJ/KG-MOL      K  
 OXIDANT     O2                           0.9791838      3822.235    426.330
 OXIDANT     H2O                          0.0124897   -237468.905    426.330
 OXIDANT     CO2                          0.0083265   -388405.803    426.330
 FUEL        PMMA                         1.0000000   -442140.000    293.150

 O/F=    0.94704  %FUEL= 51.359952  R,EQ.RATIO= 1.784033  PHI,EQ.RATIO= 2.067991

                 INJECTOR  COMB END  THROAT
 Pinj/P            1.0000   1.0044   1.7895
 P, BAR            7.8000   7.7657   4.3587
 T, K             2625.11  2624.11  2376.03
 RHO, KG/CU M    7.6339-1 7.6034-1 4.7256-1
 H, KJ/KG        -2327.13 -2329.39 -2890.45
 U, KJ/KG        -3348.88 -3350.74 -3812.82
 G, KJ/KG        -33522.7 -33515.3 -31128.0
 S, KJ/(KG)(K)    11.8835  11.8844  11.8844

 M, (1/n)          21.362   21.362   21.418
 (dLV/dLP)t      -1.00230 -1.00229 -1.00096
 (dLV/dLT)p        1.0509   1.0508   1.0231
 Cp, KJ/(KG)(K)    2.4737   2.4730   2.2294
 GAMMAs            1.2069   1.2070   1.2215
 SON VEL,M/SEC     1110.5   1110.3   1061.4
 MACH NUMBER        0.000    0.060    1.000

 PERFORMANCE PARAMETERS

 Ae/At                      9.8267  1.00000
 CSTAR, M/SEC               1551.6   1551.6
 CF                         0.0433   0.6841
 Ivac, M/SEC               15281.0   1930.4
 Isp, M/SEC                   67.1   1061.4


 MOLE FRACTIONS

 *CO              0.46914  0.46913  0.46548
 *CO2             0.08076  0.08078  0.08588
 *H               0.00694  0.00693  0.00315
 *H2              0.20762  0.20764  0.21423
 H2O              0.23345  0.23344  0.23059
 *O               0.00004  0.00004  0.00001
 *OH              0.00203  0.00203  0.00067
 *O2              0.00002  0.00002  0.00000

  * THERMODYNAMIC PROPERTIES FITTED TO 20000.K

    PRODUCTS WHICH WERE CONSIDERED BUT WHOSE MOLE FRACTIONS
    WERE LESS THAN 5.000000E-06 FOR ALL ASSIGNED CONDITIONS

 *C              *CH             CH2             CH3             CH2OH          
 CH3O            CH4             CH3OH           CH3OOH          COOH           
 *C2             C2H             C2H2,acetylene  C2H2,vinylidene CH2CO,ketene   
 O(CH)2O         HO(CO)2OH       C2H3,vinyl      CH3CO,acetyl    C2H4           
 C2H4O,ethylen-o CH3CHO,ethanal  CH3COOH         OHCH2COOH       C2H5           
 C2H6            C2H5OH          CH3OCH3         CH3O2CH3        C2O            
 *C3             C3H3,1-propynl  C3H3,2-propynl  C3H4,allene     C3H4,propyne   
 C3H4,cyclo-     C3H5,allyl      C3H6,propylene  C3H6,cyclo-     C3H6O,propylox 
 C3H6O,acetone   C3H6O,propanal  C3H7,n-propyl   C3H7,i-propyl   C3H8           
 C3H8O,1propanol C3H8O,2propanol C3O2            *C4             C4H2,butadiyne 
 C4H4,1,3-cyclo- C4H6,butadiene  C4H6,1butyne    C4H6,2butyne    C4H6,cyclo-    
 C4H8,1-butene   C4H8,cis2-buten C4H8,tr2-butene C4H8,isobutene  C4H8,cyclo-    
 (CH3COOH)2      C4H9,n-butyl    C4H9,i-butyl    C4H9,s-butyl    C4H9,t-butyl   
 C4H10,n-butane  C4H10,isobutane *C5             C5H6,1,3cyclo-  C5H8,cyclo-    
 C5H10,1-pentene C5H10,cyclo-    C5H11,pentyl    C5H11,t-pentyl  C5H12,n-pentane
 C5H12,i-pentane CH3C(CH3)2CH3   C6H2            C6H5,phenyl     C6H5O,phenoxy  
 C6H6            C6H5OH,phenol   C6H10,cyclo-    C6H12,1-hexene  C6H12,cyclo-   
 C6H13,n-hexyl   C6H14,n-hexane  C7H7,benzyl     C7H8            C7H8O,cresol-mx
 C7H14,1-heptene C7H15,n-heptyl  C7H16,n-heptane C7H16,2-methylh C8H8,styrene   
 C8H10,ethylbenz C8H16,1-octene  C8H17,n-octyl   C8H18,n-octane  C8H18,isooctane
 C9H19,n-nonyl   C10H8,naphthale C10H21,n-decyl  C12H9,o-bipheny C12H10,biphenyl
 HCO             HCCO            HO2             HCHO,formaldehy HCOOH          
 H2O2            (HCOOH)2        O3              C(gr)           H2O(cr)        
 H2O(L)         

 NOTE. WEIGHT FRACTION OF FUEL IN TOTAL FUELS AND OF OXIDANT IN TOTAL OXIDANTS






 WARNING!!  ASSIGNED pip =   0.00000 IS NOT PERMITTED
 TO BE LESS THAN  Pinj/Pc =  1.00441. POINT OMITTED (ROCKET)





              THEORETICAL ROCKET PERFORMANCE ASSUMING EQUILIBRIUM

            COMPOSITION DURING EXPANSION FROM FINITE AREA COMBUSTOR

 Pin =   113.1 PSIA
 Ac/At =  9.8267      Pinj/Pinf =  1.002199
 CASE =                

             REACTANT                    WT FRACTION      ENERGY      TEMP
                                          (SEE NOTE)     KJ/KG-MOL      K  
 OXIDANT     O2                           0.9791838      3822.235    426.330
 OXIDANT     H2O                          0.0124897   -237468.905    426.330
 OXIDANT     CO2                          0.0083265   -388405.803    426.330
 FUEL        PMMA                         1.0000000   -442140.000    293.150

 O/F=    0.94704  %FUEL= 51.359952  R,EQ.RATIO= 1.784033  PHI,EQ.RATIO= 2.067991

                 INJECTOR  COMB END  THROAT
 Pinj/P            1.0000   1.0044   1.7895
 P, BAR            7.8000   7.7657   4.3587
 T, K             2625.11  2624.11  2376.03
 RHO, KG/CU M    7.6339-1 7.6034-1 4.7256-1
 H, KJ/KG        -2327.13 -2329.39 -2890.45
 U, KJ/KG        -3348.88 -3350.74 -3812.82
 G, KJ/KG        -33522.7 -33515.3 -31128.0
 S, KJ/(KG)(K)    11.8835  11.8844  11.8844

 M, (1/n)          21.362   21.362   21.418
 (dLV/dLP)t      -1.00230 -1.00229 -1.00096
 (dLV/dLT)p        1.0509   1.0508   1.0231
 Cp, KJ/(KG)(K)    2.4737   2.4730   2.2294
 GAMMAs            1.2069   1.2070   1.2215
 SON VEL,M/SEC     1110.5   1110.3   1061.4
 MACH NUMBER        0.000    0.060    1.000

 PERFORMANCE PARAMETERS

 Ae/At                      9.8267  1.00000
 CSTAR, M/SEC               1551.6   1551.6
 CF                         0.0433   0.6841
 Ivac, M/SEC               15281.0   1930.4
 Isp, M/SEC                   67.1   1061.4


 MOLE FRACTIONS

 *CO              0.46914  0.46913  0.46548
 *CO2             0.08076  0.08078  0.08588
 *H               0.00694  0.00693  0.00315
 *H2              0.20762  0.20764  0.21423
 H2O              0.23345  0.23344  0.23059
 *O               0.00004  0.00004  0.00001
 *OH              0.00203  0.00203  0.00067
 *O2              0.00002  0.00002  0.00000

  * THERMODYNAMIC PROPERTIES FITTED TO 20000.K

    PRODUCTS WHICH WERE CONSIDERED BUT WHOSE MOLE FRACTIONS
    WERE LESS THAN 5.000000E-06 FOR ALL ASSIGNED CONDITIONS

 *C              *CH             CH2             CH3             CH2OH          
 CH3O            CH4             CH3OH           CH3OOH          COOH           
 *C2             C2H             C2H2,acetylene  C2H2,vinylidene CH2CO,ketene   
 O(CH)2O         HO(CO)2OH       C2H3,vinyl      CH3CO,acetyl    C2H4           
 C2H4O,ethylen-o CH3CHO,ethanal  CH3COOH         OHCH2COOH       C2H5           
 C2H6            C2H5OH          CH3OCH3         CH3O2CH3        C2O            
 *C3             C3H3,1-propynl  C3H3,2-propynl  C3H4,allene     C3H4,propyne   
 C3H4,cyclo-     C3H5,allyl      C3H6,propylene  C3H6,cyclo-     C3H6O,propylox 
 C3H6O,acetone   C3H6O,propanal  C3H7,n-propyl   C3H7,i-propyl   C3H8           
 C3H8O,1propanol C3H8O,2propanol C3O2            *C4             C4H2,butadiyne 
 C4H4,1,3-cyclo- C4H6,butadiene  C4H6,1butyne    C4H6,2butyne    C4H6,cyclo-    
 C4H8,1-butene   C4H8,cis2-buten C4H8,tr2-butene C4H8,isobutene  C4H8,cyclo-    
 (CH3COOH)2      C4H9,n-butyl    C4H9,i-butyl    C4H9,s-butyl    C4H9,t-butyl   
 C4H10,n-butane  C4H10,isobutane *C5             C5H6,1,3cyclo-  C5H8,cyclo-    
 C5H10,1-pentene C5H10,cyclo-    C5H11,pentyl    C5H11,t-pentyl  C5H12,n-pentane
 C5H12,i-pentane CH3C(CH3)2CH3   C6H2            C6H5,phenyl     C6H5O,phenoxy  
 C6H6            C6H5OH,phenol   C6H10,cyclo-    C6H12,1-hexene  C6H12,cyclo-   
 C6H13,n-hexyl   C6H14,n-hexane  C7H7,benzyl     C7H8            C7H8O,cresol-mx
 C7H14,1-heptene C7H15,n-heptyl  C7H16,n-heptane C7H16,2-methylh C8H8,styrene   
 C8H10,ethylbenz C8H16,1-octene  C8H17,n-octyl   C8H18,n-octane  C8H18,isooctane
 C9H19,n-nonyl   C10H8,naphthale C10H21,n-decyl  C12H9,o-bipheny C12H10,biphenyl
 HCO             HCCO            HO2             HCHO,formaldehy HCOOH          
 H2O2            (HCOOH)2        O3              C(gr)           H2O(cr)        
 H2O(L)         

 NOTE. WEIGHT FRACTION OF FUEL IN TOTAL FUELS AND OF OXIDANT IN TOTAL OXIDANTS






 WARNING!!  ASSIGNED pip =   0.00000 IS NOT PERMITTED
 TO BE LESS THAN  Pinj/Pc =  1.00441. POINT OMITTED (ROCKET)





              THEORETICAL ROCKET PERFORMANCE ASSUMING EQUILIBRIUM

            COMPOSITION DURING EXPANSION FROM FINITE AREA COMBUSTOR

 Pin =   113.1 PSIA
 Ac/At =  9.8267      Pinj/Pinf =  1.002199
 CASE =                

             REACTANT                    WT FRACTION      ENERGY      TEMP
                                          (SEE NOTE)     KJ/KG-MOL      K  
 OXIDANT     O2                           0.9791838      3822.235    426.330
 OXIDANT     H2O                          0.0124897   -237468.905    426.330
 OXIDANT     CO2                          0.0083265   -388405.803    426.330
 FUEL        PMMA                         1.0000000   -442140.000    293.150

 O/F=    0.94704  %FUEL= 51.359952  R,EQ.RATIO= 1.784033  PHI,EQ.RATIO= 2.067991

                 INJECTOR  COMB END  THROAT
 Pinj/P            1.0000   1.0044   1.7895
 P, BAR            7.8000   7.7657   4.3587
 T, K             2625.11  2624.11  2376.03
 RHO, KG/CU M    7.6339-1 7.6034-1 4.7256-1
 H, KJ/KG        -2327.13 -2329.39 -2890.45
 U, KJ/KG        -3348.88 -3350.74 -3812.82
 G, KJ/KG        -33522.7 -33515.3 -31128.0
 S, KJ/(KG)(K)    11.8835  11.8844  11.8844

 M, (1/n)          21.362   21.362   21.418
 (dLV/dLP)t      -1.00230 -1.00229 -1.00096
 (dLV/dLT)p        1.0509   1.0508   1.0231
 Cp, KJ/(KG)(K)    2.4737   2.4730   2.2294
 GAMMAs            1.2069   1.2070   1.2215
 SON VEL,M/SEC     1110.5   1110.3   1061.4
 MACH NUMBER        0.000    0.060    1.000

 PERFORMANCE PARAMETERS

 Ae/At                      9.8267  1.00000
 CSTAR, M/SEC               1551.6   1551.6
 CF                         0.0433   0.6841
 Ivac, M/SEC               15281.0   1930.4
 Isp, M/SEC                   67.1   1061.4


 MOLE FRACTIONS

 *CO              0.46914  0.46913  0.46548
 *CO2             0.08076  0.08078  0.08588
 *H               0.00694  0.00693  0.00315
 *H2              0.20762  0.20764  0.21423
 H2O              0.23345  0.23344  0.23059
 *O               0.00004  0.00004  0.00001
 *OH              0.00203  0.00203  0.00067
 *O2              0.00002  0.00002  0.00000

  * THERMODYNAMIC PROPERTIES FITTED TO 20000.K

    PRODUCTS WHICH WERE CONSIDERED BUT WHOSE MOLE FRACTIONS
    WERE LESS THAN 5.000000E-06 FOR ALL ASSIGNED CONDITIONS

 *C              *CH             CH2             CH3             CH2OH          
 CH3O            CH4             CH3OH           CH3OOH          COOH           
 *C2             C2H             C2H2,acetylene  C2H2,vinylidene CH2CO,ketene   
 O(CH)2O         HO(CO)2OH       C2H3,vinyl      CH3CO,acetyl    C2H4           
 C2H4O,ethylen-o CH3CHO,ethanal  CH3COOH         OHCH2COOH       C2H5           
 C2H6            C2H5OH          CH3OCH3         CH3O2CH3        C2O            
 *C3             C3H3,1-propynl  C3H3,2-propynl  C3H4,allene     C3H4,propyne   
 C3H4,cyclo-     C3H5,allyl      C3H6,propylene  C3H6,cyclo-     C3H6O,propylox 
 C3H6O,acetone   C3H6O,propanal  C3H7,n-propyl   C3H7,i-propyl   C3H8           
 C3H8O,1propanol C3H8O,2propanol C3O2            *C4             C4H2,butadiyne 
 C4H4,1,3-cyclo- C4H6,butadiene  C4H6,1butyne    C4H6,2butyne    C4H6,cyclo-    
 C4H8,1-butene   C4H8,cis2-buten C4H8,tr2-butene C4H8,isobutene  C4H8,cyclo-    
 (CH3COOH)2      C4H9,n-butyl    C4H9,i-butyl    C4H9,s-butyl    C4H9,t-butyl   
 C4H10,n-butane  C4H10,isobutane *C5             C5H6,1,3cyclo-  C5H8,cyclo-    
 C5H10,1-pentene C5H10,cyclo-    C5H11,pentyl    C5H11,t-pentyl  C5H12,n-pentane
 C5H12,i-pentane CH3C(CH3)2CH3   C6H2            C6H5,phenyl     C6H5O,phenoxy  
 C6H6            C6H5OH,phenol   C6H10,cyclo-    C6H12,1-hexene  C6H12,cyclo-   
 C6H13,n-hexyl   C6H14,n-hexane  C7H7,benzyl     C7H8            C7H8O,cresol-mx
 C7H14,1-heptene C7H15,n-heptyl  C7H16,n-heptane C7H16,2-methylh C8H8,styrene   
 C8H10,ethylbenz C8H16,1-octene  C8H17,n-octyl   C8H18,n-octane  C8H18,isooctane
 C9H19,n-nonyl   C10H8,naphthale C10H21,n-decyl  C12H9,o-bipheny C12H10,biphenyl
 HCO             HCCO            HO2             HCHO,formaldehy HCOOH          
 H2O2            (HCOOH)2        O3              C(gr)           H2O(cr)        
 H2O(L)         

 NOTE. WEIGHT FRACTION OF FUEL IN TOTAL FUELS AND OF OXIDANT IN TOTAL OXIDANTS






 WARNING!!  ASSIGNED pip =   0.00000 IS NOT PERMITTED
 TO BE LESS THAN  Pinj/Pc =  1.00441. POINT OMITTED (ROCKET)





              THEORETICAL ROCKET PERFORMANCE ASSUMING EQUILIBRIUM

            COMPOSITION DURING EXPANSION FROM FINITE AREA COMBUSTOR

 Pin =   113.1 PSIA
 Ac/At =  9.8267      Pinj/Pinf =  1.002199
 CASE =                

             REACTANT                    WT FRACTION      ENERGY      TEMP
                                          (SEE NOTE)     KJ/KG-MOL      K  
 OXIDANT     O2                           0.9791838      3822.235    426.330
 OXIDANT     H2O                          0.0124897   -237468.905    426.330
 OXIDANT     CO2                          0.0083265   -388405.803    426.330
 FUEL        PMMA                         1.0000000   -442140.000    293.150

 O/F=    0.94704  %FUEL= 51.359952  R,EQ.RATIO= 1.784033  PHI,EQ.RATIO= 2.067991

                 INJECTOR  COMB END  THROAT
 Pinj/P            1.0000   1.0044   1.7895
 P, BAR            7.8000   7.7657   4.3587
 T, K             2625.11  2624.11  2376.03
 RHO, KG/CU M    7.6339-1 7.6034-1 4.7256-1
 H, KJ/KG        -2327.13 -2329.39 -2890.45
 U, KJ/KG        -3348.88 -3350.74 -3812.82
 G, KJ/KG        -33522.7 -33515.3 -31128.0
 S, KJ/(KG)(K)    11.8835  11.8844  11.8844

 M, (1/n)          21.362   21.362   21.418
 (dLV/dLP)t      -1.00230 -1.00229 -1.00096
 (dLV/dLT)p        1.0509   1.0508   1.0231
 Cp, KJ/(KG)(K)    2.4737   2.4730   2.2294
 GAMMAs            1.2069   1.2070   1.2215
 SON VEL,M/SEC     1110.5   1110.3   1061.4
 MACH NUMBER        0.000    0.060    1.000

 PERFORMANCE PARAMETERS

 Ae/At                      9.8267  1.00000
 CSTAR, M/SEC               1551.6   1551.6
 CF                         0.0433   0.6841
 Ivac, M/SEC               15281.0   1930.4
 Isp, M/SEC                   67.1   1061.4


 MOLE FRACTIONS

 *CO              0.46914  0.46913  0.46548
 *CO2             0.08076  0.08078  0.08588
 *H               0.00694  0.00693  0.00315
 *H2              0.20762  0.20764  0.21423
 H2O              0.23345  0.23344  0.23059
 *O               0.00004  0.00004  0.00001
 *OH              0.00203  0.00203  0.00067
 *O2              0.00002  0.00002  0.00000

  * THERMODYNAMIC PROPERTIES FITTED TO 20000.K

    PRODUCTS WHICH WERE CONSIDERED BUT WHOSE MOLE FRACTIONS
    WERE LESS THAN 5.000000E-06 FOR ALL ASSIGNED CONDITIONS

 *C              *CH             CH2             CH3             CH2OH          
 CH3O            CH4             CH3OH           CH3OOH          COOH           
 *C2             C2H             C2H2,acetylene  C2H2,vinylidene CH2CO,ketene   
 O(CH)2O         HO(CO)2OH       C2H3,vinyl      CH3CO,acetyl    C2H4           
 C2H4O,ethylen-o CH3CHO,ethanal  CH3COOH         OHCH2COOH       C2H5           
 C2H6            C2H5OH          CH3OCH3         CH3O2CH3        C2O            
 *C3             C3H3,1-propynl  C3H3,2-propynl  C3H4,allene     C3H4,propyne   
 C3H4,cyclo-     C3H5,allyl      C3H6,propylene  C3H6,cyclo-     C3H6O,propylox 
 C3H6O,acetone   C3H6O,propanal  C3H7,n-propyl   C3H7,i-propyl   C3H8           
 C3H8O,1propanol C3H8O,2propanol C3O2            *C4             C4H2,butadiyne 
 C4H4,1,3-cyclo- C4H6,butadiene  C4H6,1butyne    C4H6,2butyne    C4H6,cyclo-    
 C4H8,1-butene   C4H8,cis2-buten C4H8,tr2-butene C4H8,isobutene  C4H8,cyclo-    
 (CH3COOH)2      C4H9,n-butyl    C4H9,i-butyl    C4H9,s-butyl    C4H9,t-butyl   
 C4H10,n-butane  C4H10,isobutane *C5             C5H6,1,3cyclo-  C5H8,cyclo-    
 C5H10,1-pentene C5H10,cyclo-    C5H11,pentyl    C5H11,t-pentyl  C5H12,n-pentane
 C5H12,i-pentane CH3C(CH3)2CH3   C6H2            C6H5,phenyl     C6H5O,phenoxy  
 C6H6            C6H5OH,phenol   C6H10,cyclo-    C6H12,1-hexene  C6H12,cyclo-   
 C6H13,n-hexyl   C6H14,n-hexane  C7H7,benzyl     C7H8            C7H8O,cresol-mx
 C7H14,1-heptene C7H15,n-heptyl  C7H16,n-heptane C7H16,2-methylh C8H8,styrene   
 C8H10,ethylbenz C8H16,1-octene  C8H17,n-octyl   C8H18,n-octane  C8H18,isooctane
 C9H19,n-nonyl   C10H8,naphthale C10H21,n-decyl  C12H9,o-bipheny C12H10,biphenyl
 HCO             HCCO            HO2             HCHO,formaldehy HCOOH          
 H2O2            (HCOOH)2        O3              C(gr)           H2O(cr)        
 H2O(L)         

 NOTE. WEIGHT FRACTION OF FUEL IN TOTAL FUELS AND OF OXIDANT IN TOTAL OXIDANTS






 WARNING!!  ASSIGNED pip =   0.00000 IS NOT PERMITTED
 TO BE LESS THAN  Pinj/Pc =  1.00441. POINT OMITTED (ROCKET)





              THEORETICAL ROCKET PERFORMANCE ASSUMING EQUILIBRIUM

            COMPOSITION DURING EXPANSION FROM FINITE AREA COMBUSTOR

 Pin =   113.1 PSIA
 Ac/At =  9.8267      Pinj/Pinf =  1.002199
 CASE =                

             REACTANT                    WT FRACTION      ENERGY      TEMP
                                          (SEE NOTE)     KJ/KG-MOL      K  
 OXIDANT     O2                           0.9791838      3822.235    426.330
 OXIDANT     H2O                          0.0124897   -237468.905    426.330
 OXIDANT     CO2                          0.0083265   -388405.803    426.330
 FUEL        PMMA                         1.0000000   -442140.000    293.150

 O/F=    0.94704  %FUEL= 51.359952  R,EQ.RATIO= 1.784033  PHI,EQ.RATIO= 2.067991

                 INJECTOR  COMB END  THROAT
 Pinj/P            1.0000   1.0044   1.7895
 P, BAR            7.8000   7.7657   4.3587
 T, K             2625.11  2624.11  2376.03
 RHO, KG/CU M    7.6339-1 7.6034-1 4.7256-1
 H, KJ/KG        -2327.13 -2329.39 -2890.45
 U, KJ/KG        -3348.88 -3350.74 -3812.82
 G, KJ/KG        -33522.7 -33515.3 -31128.0
 S, KJ/(KG)(K)    11.8835  11.8844  11.8844

 M, (1/n)          21.362   21.362   21.418
 (dLV/dLP)t      -1.00230 -1.00229 -1.00096
 (dLV/dLT)p        1.0509   1.0508   1.0231
 Cp, KJ/(KG)(K)    2.4737   2.4730   2.2294
 GAMMAs            1.2069   1.2070   1.2215
 SON VEL,M/SEC     1110.5   1110.3   1061.4
 MACH NUMBER        0.000    0.060    1.000

 PERFORMANCE PARAMETERS

 Ae/At                      9.8267  1.00000
 CSTAR, M/SEC               1551.6   1551.6
 CF                         0.0433   0.6841
 Ivac, M/SEC               15281.0   1930.4
 Isp, M/SEC                   67.1   1061.4


 MOLE FRACTIONS

 *CO              0.46914  0.46913  0.46548
 *CO2             0.08076  0.08078  0.08588
 *H               0.00694  0.00693  0.00315
 *H2              0.20762  0.20764  0.21423
 H2O              0.23345  0.23344  0.23059
 *O               0.00004  0.00004  0.00001
 *OH              0.00203  0.00203  0.00067
 *O2              0.00002  0.00002  0.00000

  * THERMODYNAMIC PROPERTIES FITTED TO 20000.K

    PRODUCTS WHICH WERE CONSIDERED BUT WHOSE MOLE FRACTIONS
    WERE LESS THAN 5.000000E-06 FOR ALL ASSIGNED CONDITIONS

 *C              *CH             CH2             CH3             CH2OH          
 CH3O            CH4             CH3OH           CH3OOH          COOH           
 *C2             C2H             C2H2,acetylene  C2H2,vinylidene CH2CO,ketene   
 O(CH)2O         HO(CO)2OH       C2H3,vinyl      CH3CO,acetyl    C2H4           
 C2H4O,ethylen-o CH3CHO,ethanal  CH3COOH         OHCH2COOH       C2H5           
 C2H6            C2H5OH          CH3OCH3         CH3O2CH3        C2O            
 *C3             C3H3,1-propynl  C3H3,2-propynl  C3H4,allene     C3H4,propyne   
 C3H4,cyclo-     C3H5,allyl      C3H6,propylene  C3H6,cyclo-     C3H6O,propylox 
 C3H6O,acetone   C3H6O,propanal  C3H7,n-propyl   C3H7,i-propyl   C3H8           
 C3H8O,1propanol C3H8O,2propanol C3O2            *C4             C4H2,butadiyne 
 C4H4,1,3-cyclo- C4H6,butadiene  C4H6,1butyne    C4H6,2butyne    C4H6,cyclo-    
 C4H8,1-butene   C4H8,cis2-buten C4H8,tr2-butene C4H8,isobutene  C4H8,cyclo-    
 (CH3COOH)2      C4H9,n-butyl    C4H9,i-butyl    C4H9,s-butyl    C4H9,t-butyl   
 C4H10,n-butane  C4H10,isobutane *C5             C5H6,1,3cyclo-  C5H8,cyclo-    
 C5H10,1-pentene C5H10,cyclo-    C5H11,pentyl    C5H11,t-pentyl  C5H12,n-pentane
 C5H12,i-pentane CH3C(CH3)2CH3   C6H2            C6H5,phenyl     C6H5O,phenoxy  
 C6H6            C6H5OH,phenol   C6H10,cyclo-    C6H12,1-hexene  C6H12,cyclo-   
 C6H13,n-hexyl   C6H14,n-hexane  C7H7,benzyl     C7H8            C7H8O,cresol-mx
 C7H14,1-heptene C7H15,n-heptyl  C7H16,n-heptane C7H16,2-methylh C8H8,styrene   
 C8H10,ethylbenz C8H16,1-octene  C8H17,n-octyl   C8H18,n-octane  C8H18,isooctane
 C9H19,n-nonyl   C10H8,naphthale C10H21,n-decyl  C12H9,o-bipheny C12H10,biphenyl
 HCO             HCCO            HO2             HCHO,formaldehy HCOOH          
 H2O2            (HCOOH)2        O3              C(gr)           H2O(cr)        
 H2O(L)         

 NOTE. WEIGHT FRACTION OF FUEL IN TOTAL FUELS AND OF OXIDANT IN TOTAL OXIDANTS






 WARNING!!  ASSIGNED pip =   0.00000 IS NOT PERMITTED
 TO BE LESS THAN  Pinj/Pc =  1.00441. POINT OMITTED (ROCKET)





              THEORETICAL ROCKET PERFORMANCE ASSUMING EQUILIBRIUM

            COMPOSITION DURING EXPANSION FROM FINITE AREA COMBUSTOR

 Pin =   113.1 PSIA
 Ac/At =  9.8267      Pinj/Pinf =  1.002199
 CASE =                

             REACTANT                    WT FRACTION      ENERGY      TEMP
                                          (SEE NOTE)     KJ/KG-MOL      K  
 OXIDANT     O2                           0.9791838      3822.235    426.330
 OXIDANT     H2O                          0.0124897   -237468.905    426.330
 OXIDANT     CO2                          0.0083265   -388405.803    426.330
 FUEL        PMMA                         1.0000000   -442140.000    293.150

 O/F=    0.94704  %FUEL= 51.359952  R,EQ.RATIO= 1.784033  PHI,EQ.RATIO= 2.067991

                 INJECTOR  COMB END  THROAT
 Pinj/P            1.0000   1.0044   1.7895
 P, BAR            7.8000   7.7657   4.3587
 T, K             2625.11  2624.11  2376.03
 RHO, KG/CU M    7.6339-1 7.6034-1 4.7256-1
 H, KJ/KG        -2327.13 -2329.39 -2890.45
 U, KJ/KG        -3348.88 -3350.74 -3812.82
 G, KJ/KG        -33522.7 -33515.3 -31128.0
 S, KJ/(KG)(K)    11.8835  11.8844  11.8844

 M, (1/n)          21.362   21.362   21.418
 (dLV/dLP)t      -1.00230 -1.00229 -1.00096
 (dLV/dLT)p        1.0509   1.0508   1.0231
 Cp, KJ/(KG)(K)    2.4737   2.4730   2.2294
 GAMMAs            1.2069   1.2070   1.2215
 SON VEL,M/SEC     1110.5   1110.3   1061.4
 MACH NUMBER        0.000    0.060    1.000

 PERFORMANCE PARAMETERS

 Ae/At                      9.8267  1.00000
 CSTAR, M/SEC               1551.6   1551.6
 CF                         0.0433   0.6841
 Ivac, M/SEC               15281.0   1930.4
 Isp, M/SEC                   67.1   1061.4


 MOLE FRACTIONS

 *CO              0.46914  0.46913  0.46548
 *CO2             0.08076  0.08078  0.08588
 *H               0.00694  0.00693  0.00315
 *H2              0.20762  0.20764  0.21423
 H2O              0.23345  0.23344  0.23059
 *O               0.00004  0.00004  0.00001
 *OH              0.00203  0.00203  0.00067
 *O2              0.00002  0.00002  0.00000

  * THERMODYNAMIC PROPERTIES FITTED TO 20000.K

    PRODUCTS WHICH WERE CONSIDERED BUT WHOSE MOLE FRACTIONS
    WERE LESS THAN 5.000000E-06 FOR ALL ASSIGNED CONDITIONS

 *C              *CH             CH2             CH3             CH2OH          
 CH3O            CH4             CH3OH           CH3OOH          COOH           
 *C2             C2H             C2H2,acetylene  C2H2,vinylidene CH2CO,ketene   
 O(CH)2O         HO(CO)2OH       C2H3,vinyl      CH3CO,acetyl    C2H4           
 C2H4O,ethylen-o CH3CHO,ethanal  CH3COOH         OHCH2COOH       C2H5           
 C2H6            C2H5OH          CH3OCH3         CH3O2CH3        C2O            
 *C3             C3H3,1-propynl  C3H3,2-propynl  C3H4,allene     C3H4,propyne   
 C3H4,cyclo-     C3H5,allyl      C3H6,propylene  C3H6,cyclo-     C3H6O,propylox 
 C3H6O,acetone   C3H6O,propanal  C3H7,n-propyl   C3H7,i-propyl   C3H8           
 C3H8O,1propanol C3H8O,2propanol C3O2            *C4             C4H2,butadiyne 
 C4H4,1,3-cyclo- C4H6,butadiene  C4H6,1butyne    C4H6,2butyne    C4H6,cyclo-    
 C4H8,1-butene   C4H8,cis2-buten C4H8,tr2-butene C4H8,isobutene  C4H8,cyclo-    
 (CH3COOH)2      C4H9,n-butyl    C4H9,i-butyl    C4H9,s-butyl    C4H9,t-butyl   
 C4H10,n-butane  C4H10,isobutane *C5             C5H6,1,3cyclo-  C5H8,cyclo-    
 C5H10,1-pentene C5H10,cyclo-    C5H11,pentyl    C5H11,t-pentyl  C5H12,n-pentane
 C5H12,i-pentane CH3C(CH3)2CH3   C6H2            C6H5,phenyl     C6H5O,phenoxy  
 C6H6            C6H5OH,phenol   C6H10,cyclo-    C6H12,1-hexene  C6H12,cyclo-   
 C6H13,n-hexyl   C6H14,n-hexane  C7H7,benzyl     C7H8            C7H8O,cresol-mx
 C7H14,1-heptene C7H15,n-heptyl  C7H16,n-heptane C7H16,2-methylh C8H8,styrene   
 C8H10,ethylbenz C8H16,1-octene  C8H17,n-octyl   C8H18,n-octane  C8H18,isooctane
 C9H19,n-nonyl   C10H8,naphthale C10H21,n-decyl  C12H9,o-bipheny C12H10,biphenyl
 HCO             HCCO            HO2             HCHO,formaldehy HCOOH          
 H2O2            (HCOOH)2        O3              C(gr)           H2O(cr)        
 H2O(L)         

 NOTE. WEIGHT FRACTION OF FUEL IN TOTAL FUELS AND OF OXIDANT IN TOTAL OXIDANTS






 WARNING!!  ASSIGNED pip =   0.00000 IS NOT PERMITTED
 TO BE LESS THAN  Pinj/Pc =  1.00441. POINT OMITTED (ROCKET)





              THEORETICAL ROCKET PERFORMANCE ASSUMING EQUILIBRIUM

            COMPOSITION DURING EXPANSION FROM FINITE AREA COMBUSTOR

 Pin =   113.1 PSIA
 Ac/At =  9.8267      Pinj/Pinf =  1.002199
 CASE =                

             REACTANT                    WT FRACTION      ENERGY      TEMP
                                          (SEE NOTE)     KJ/KG-MOL      K  
 OXIDANT     O2                           0.9791838      3822.235    426.330
 OXIDANT     H2O                          0.0124897   -237468.905    426.330
 OXIDANT     CO2                          0.0083265   -388405.803    426.330
 FUEL        PMMA                         1.0000000   -442140.000    293.150

 O/F=    0.94704  %FUEL= 51.359952  R,EQ.RATIO= 1.784033  PHI,EQ.RATIO= 2.067991

                 INJECTOR  COMB END  THROAT
 Pinj/P            1.0000   1.0044   1.7895
 P, BAR            7.8000   7.7657   4.3587
 T, K             2625.11  2624.11  2376.03
 RHO, KG/CU M    7.6339-1 7.6034-1 4.7256-1
 H, KJ/KG        -2327.13 -2329.39 -2890.45
 U, KJ/KG        -3348.88 -3350.74 -3812.82
 G, KJ/KG        -33522.7 -33515.3 -31128.0
 S, KJ/(KG)(K)    11.8835  11.8844  11.8844

 M, (1/n)          21.362   21.362   21.418
 (dLV/dLP)t      -1.00230 -1.00229 -1.00096
 (dLV/dLT)p        1.0509   1.0508   1.0231
 Cp, KJ/(KG)(K)    2.4737   2.4730   2.2294
 GAMMAs            1.2069   1.2070   1.2215
 SON VEL,M/SEC     1110.5   1110.3   1061.4
 MACH NUMBER        0.000    0.060    1.000

 PERFORMANCE PARAMETERS

 Ae/At                      9.8267  1.00000
 CSTAR, M/SEC               1551.6   1551.6
 CF                         0.0433   0.6841
 Ivac, M/SEC               15281.0   1930.4
 Isp, M/SEC                   67.1   1061.4


 MOLE FRACTIONS

 *CO              0.46914  0.46913  0.46548
 *CO2             0.08076  0.08078  0.08588
 *H               0.00694  0.00693  0.00315
 *H2              0.20762  0.20764  0.21423
 H2O              0.23345  0.23344  0.23059
 *O               0.00004  0.00004  0.00001
 *OH              0.00203  0.00203  0.00067
 *O2              0.00002  0.00002  0.00000

  * THERMODYNAMIC PROPERTIES FITTED TO 20000.K

    PRODUCTS WHICH WERE CONSIDERED BUT WHOSE MOLE FRACTIONS
    WERE LESS THAN 5.000000E-06 FOR ALL ASSIGNED CONDITIONS

 *C              *CH             CH2             CH3             CH2OH          
 CH3O            CH4             CH3OH           CH3OOH          COOH           
 *C2             C2H             C2H2,acetylene  C2H2,vinylidene CH2CO,ketene   
 O(CH)2O         HO(CO)2OH       C2H3,vinyl      CH3CO,acetyl    C2H4           
 C2H4O,ethylen-o CH3CHO,ethanal  CH3COOH         OHCH2COOH       C2H5           
 C2H6            C2H5OH          CH3OCH3         CH3O2CH3        C2O            
 *C3             C3H3,1-propynl  C3H3,2-propynl  C3H4,allene     C3H4,propyne   
 C3H4,cyclo-     C3H5,allyl      C3H6,propylene  C3H6,cyclo-     C3H6O,propylox 
 C3H6O,acetone   C3H6O,propanal  C3H7,n-propyl   C3H7,i-propyl   C3H8           
 C3H8O,1propanol C3H8O,2propanol C3O2            *C4             C4H2,butadiyne 
 C4H4,1,3-cyclo- C4H6,butadiene  C4H6,1butyne    C4H6,2butyne    C4H6,cyclo-    
 C4H8,1-butene   C4H8,cis2-buten C4H8,tr2-butene C4H8,isobutene  C4H8,cyclo-    
 (CH3COOH)2      C4H9,n-butyl    C4H9,i-butyl    C4H9,s-butyl    C4H9,t-butyl   
 C4H10,n-butane  C4H10,isobutane *C5             C5H6,1,3cyclo-  C5H8,cyclo-    
 C5H10,1-pentene C5H10,cyclo-    C5H11,pentyl    C5H11,t-pentyl  C5H12,n-pentane
 C5H12,i-pentane CH3C(CH3)2CH3   C6H2            C6H5,phenyl     C6H5O,phenoxy  
 C6H6            C6H5OH,phenol   C6H10,cyclo-    C6H12,1-hexene  C6H12,cyclo-   
 C6H13,n-hexyl   C6H14,n-hexane  C7H7,benzyl     C7H8            C7H8O,cresol-mx
 C7H14,1-heptene C7H15,n-heptyl  C7H16,n-heptane C7H16,2-methylh C8H8,styrene   
 C8H10,ethylbenz C8H16,1-octene  C8H17,n-octyl   C8H18,n-octane  C8H18,isooctane
 C9H19,n-nonyl   C10H8,naphthale C10H21,n-decyl  C12H9,o-bipheny C12H10,biphenyl
 HCO             HCCO            HO2             HCHO,formaldehy HCOOH          
 H2O2            (HCOOH)2        O3              C(gr)           H2O(cr)        
 H2O(L)         

 NOTE. WEIGHT FRACTION OF FUEL IN TOTAL FUELS AND OF OXIDANT IN TOTAL OXIDANTS






 WARNING!!  ASSIGNED pip =   0.00000 IS NOT PERMITTED
 TO BE LESS THAN  Pinj/Pc =  1.00441. POINT OMITTED (ROCKET)





              THEORETICAL ROCKET PERFORMANCE ASSUMING EQUILIBRIUM

            COMPOSITION DURING EXPANSION FROM FINITE AREA COMBUSTOR

 Pin =   113.1 PSIA
 Ac/At =  9.8267      Pinj/Pinf =  1.002199
 CASE =                

             REACTANT                    WT FRACTION      ENERGY      TEMP
                                          (SEE NOTE)     KJ/KG-MOL      K  
 OXIDANT     O2                           0.9791838      3822.235    426.330
 OXIDANT     H2O                          0.0124897   -237468.905    426.330
 OXIDANT     CO2                          0.0083265   -388405.803    426.330
 FUEL        PMMA                         1.0000000   -442140.000    293.150

 O/F=    0.94704  %FUEL= 51.359952  R,EQ.RATIO= 1.784033  PHI,EQ.RATIO= 2.067991

                 INJECTOR  COMB END  THROAT
 Pinj/P            1.0000   1.0044   1.7895
 P, BAR            7.8000   7.7657   4.3587
 T, K             2625.11  2624.11  2376.03
 RHO, KG/CU M    7.6339-1 7.6034-1 4.7256-1
 H, KJ/KG        -2327.13 -2329.39 -2890.45
 U, KJ/KG        -3348.88 -3350.74 -3812.82
 G, KJ/KG        -33522.7 -33515.3 -31128.0
 S, KJ/(KG)(K)    11.8835  11.8844  11.8844

 M, (1/n)          21.362   21.362   21.418
 (dLV/dLP)t      -1.00230 -1.00229 -1.00096
 (dLV/dLT)p        1.0509   1.0508   1.0231
 Cp, KJ/(KG)(K)    2.4737   2.4730   2.2294
 GAMMAs            1.2069   1.2070   1.2215
 SON VEL,M/SEC     1110.5   1110.3   1061.4
 MACH NUMBER        0.000    0.060    1.000

 PERFORMANCE PARAMETERS

 Ae/At                      9.8267  1.00000
 CSTAR, M/SEC               1551.6   1551.6
 CF                         0.0433   0.6841
 Ivac, M/SEC               15281.0   1930.4
 Isp, M/SEC                   67.1   1061.4


 MOLE FRACTIONS

 *CO              0.46914  0.46913  0.46548
 *CO2             0.08076  0.08078  0.08588
 *H               0.00694  0.00693  0.00315
 *H2              0.20762  0.20764  0.21423
 H2O              0.23345  0.23344  0.23059
 *O               0.00004  0.00004  0.00001
 *OH              0.00203  0.00203  0.00067
 *O2              0.00002  0.00002  0.00000

  * THERMODYNAMIC PROPERTIES FITTED TO 20000.K

    PRODUCTS WHICH WERE CONSIDERED BUT WHOSE MOLE FRACTIONS
    WERE LESS THAN 5.000000E-06 FOR ALL ASSIGNED CONDITIONS

 *C              *CH             CH2             CH3             CH2OH          
 CH3O            CH4             CH3OH           CH3OOH          COOH           
 *C2             C2H             C2H2,acetylene  C2H2,vinylidene CH2CO,ketene   
 O(CH)2O         HO(CO)2OH       C2H3,vinyl      CH3CO,acetyl    C2H4           
 C2H4O,ethylen-o CH3CHO,ethanal  CH3COOH         OHCH2COOH       C2H5           
 C2H6            C2H5OH          CH3OCH3         CH3O2CH3        C2O            
 *C3             C3H3,1-propynl  C3H3,2-propynl  C3H4,allene     C3H4,propyne   
 C3H4,cyclo-     C3H5,allyl      C3H6,propylene  C3H6,cyclo-     C3H6O,propylox 
 C3H6O,acetone   C3H6O,propanal  C3H7,n-propyl   C3H7,i-propyl   C3H8           
 C3H8O,1propanol C3H8O,2propanol C3O2            *C4             C4H2,butadiyne 
 C4H4,1,3-cyclo- C4H6,butadiene  C4H6,1butyne    C4H6,2butyne    C4H6,cyclo-    
 C4H8,1-butene   C4H8,cis2-buten C4H8,tr2-butene C4H8,isobutene  C4H8,cyclo-    
 (CH3COOH)2      C4H9,n-butyl    C4H9,i-butyl    C4H9,s-butyl    C4H9,t-butyl   
 C4H10,n-butane  C4H10,isobutane *C5             C5H6,1,3cyclo-  C5H8,cyclo-    
 C5H10,1-pentene C5H10,cyclo-    C5H11,pentyl    C5H11,t-pentyl  C5H12,n-pentane
 C5H12,i-pentane CH3C(CH3)2CH3   C6H2            C6H5,phenyl     C6H5O,phenoxy  
 C6H6            C6H5OH,phenol   C6H10,cyclo-    C6H12,1-hexene  C6H12,cyclo-   
 C6H13,n-hexyl   C6H14,n-hexane  C7H7,benzyl     C7H8            C7H8O,cresol-mx
 C7H14,1-heptene C7H15,n-heptyl  C7H16,n-heptane C7H16,2-methylh C8H8,styrene   
 C8H10,ethylbenz C8H16,1-octene  C8H17,n-octyl   C8H18,n-octane  C8H18,isooctane
 C9H19,n-nonyl   C10H8,naphthale C10H21,n-decyl  C12H9,o-bipheny C12H10,biphenyl
 HCO             HCCO            HO2             HCHO,formaldehy HCOOH          
 H2O2            (HCOOH)2        O3              C(gr)           H2O(cr)        
 H2O(L)         

 NOTE. WEIGHT FRACTION OF FUEL IN TOTAL FUELS AND OF OXIDANT IN TOTAL OXIDANTS






 WARNING!!  ASSIGNED pip =   0.00000 IS NOT PERMITTED
 TO BE LESS THAN  Pinj/Pc =  1.00441. POINT OMITTED (ROCKET)





              THEORETICAL ROCKET PERFORMANCE ASSUMING EQUILIBRIUM

            COMPOSITION DURING EXPANSION FROM FINITE AREA COMBUSTOR

 Pin =   113.1 PSIA
 Ac/At =  9.8267      Pinj/Pinf =  1.002199
 CASE =                

             REACTANT                    WT FRACTION      ENERGY      TEMP
                                          (SEE NOTE)     KJ/KG-MOL      K  
 OXIDANT     O2                           0.9791838      3822.235    426.330
 OXIDANT     H2O                          0.0124897   -237468.905    426.330
 OXIDANT     CO2                          0.0083265   -388405.803    426.330
 FUEL        PMMA                         1.0000000   -442140.000    293.150

 O/F=    0.94704  %FUEL= 51.359952  R,EQ.RATIO= 1.784033  PHI,EQ.RATIO= 2.067991

                 INJECTOR  COMB END  THROAT
 Pinj/P            1.0000   1.0044   1.7895
 P, BAR            7.8000   7.7657   4.3587
 T, K             2625.11  2624.11  2376.03
 RHO, KG/CU M    7.6339-1 7.6034-1 4.7256-1
 H, KJ/KG        -2327.13 -2329.39 -2890.45
 U, KJ/KG        -3348.88 -3350.74 -3812.82
 G, KJ/KG        -33522.7 -33515.3 -31128.0
 S, KJ/(KG)(K)    11.8835  11.8844  11.8844

 M, (1/n)          21.362   21.362   21.418
 (dLV/dLP)t      -1.00230 -1.00229 -1.00096
 (dLV/dLT)p        1.0509   1.0508   1.0231
 Cp, KJ/(KG)(K)    2.4737   2.4730   2.2294
 GAMMAs            1.2069   1.2070   1.2215
 SON VEL,M/SEC     1110.5   1110.3   1061.4
 MACH NUMBER        0.000    0.060    1.000

 PERFORMANCE PARAMETERS

 Ae/At                      9.8267  1.00000
 CSTAR, M/SEC               1551.6   1551.6
 CF                         0.0433   0.6841
 Ivac, M/SEC               15281.0   1930.4
 Isp, M/SEC                   67.1   1061.4


 MOLE FRACTIONS

 *CO              0.46914  0.46913  0.46548
 *CO2             0.08076  0.08078  0.08588
 *H               0.00694  0.00693  0.00315
 *H2              0.20762  0.20764  0.21423
 H2O              0.23345  0.23344  0.23059
 *O               0.00004  0.00004  0.00001
 *OH              0.00203  0.00203  0.00067
 *O2              0.00002  0.00002  0.00000

  * THERMODYNAMIC PROPERTIES FITTED TO 20000.K

    PRODUCTS WHICH WERE CONSIDERED BUT WHOSE MOLE FRACTIONS
    WERE LESS THAN 5.000000E-06 FOR ALL ASSIGNED CONDITIONS

 *C              *CH             CH2             CH3             CH2OH          
 CH3O            CH4             CH3OH           CH3OOH          COOH           
 *C2             C2H             C2H2,acetylene  C2H2,vinylidene CH2CO,ketene   
 O(CH)2O         HO(CO)2OH       C2H3,vinyl      CH3CO,acetyl    C2H4           
 C2H4O,ethylen-o CH3CHO,ethanal  CH3COOH         OHCH2COOH       C2H5           
 C2H6            C2H5OH          CH3OCH3         CH3O2CH3        C2O            
 *C3             C3H3,1-propynl  C3H3,2-propynl  C3H4,allene     C3H4,propyne   
 C3H4,cyclo-     C3H5,allyl      C3H6,propylene  C3H6,cyclo-     C3H6O,propylox 
 C3H6O,acetone   C3H6O,propanal  C3H7,n-propyl   C3H7,i-propyl   C3H8           
 C3H8O,1propanol C3H8O,2propanol C3O2            *C4             C4H2,butadiyne 
 C4H4,1,3-cyclo- C4H6,butadiene  C4H6,1butyne    C4H6,2butyne    C4H6,cyclo-    
 C4H8,1-butene   C4H8,cis2-buten C4H8,tr2-butene C4H8,isobutene  C4H8,cyclo-    
 (CH3COOH)2      C4H9,n-butyl    C4H9,i-butyl    C4H9,s-butyl    C4H9,t-butyl   
 C4H10,n-butane  C4H10,isobutane *C5             C5H6,1,3cyclo-  C5H8,cyclo-    
 C5H10,1-pentene C5H10,cyclo-    C5H11,pentyl    C5H11,t-pentyl  C5H12,n-pentane
 C5H12,i-pentane CH3C(CH3)2CH3   C6H2            C6H5,phenyl     C6H5O,phenoxy  
 C6H6            C6H5OH,phenol   C6H10,cyclo-    C6H12,1-hexene  C6H12,cyclo-   
 C6H13,n-hexyl   C6H14,n-hexane  C7H7,benzyl     C7H8            C7H8O,cresol-mx
 C7H14,1-heptene C7H15,n-heptyl  C7H16,n-heptane C7H16,2-methylh C8H8,styrene   
 C8H10,ethylbenz C8H16,1-octene  C8H17,n-octyl   C8H18,n-octane  C8H18,isooctane
 C9H19,n-nonyl   C10H8,naphthale C10H21,n-decyl  C12H9,o-bipheny C12H10,biphenyl
 HCO             HCCO            HO2             HCHO,formaldehy HCOOH          
 H2O2            (HCOOH)2        O3              C(gr)           H2O(cr)        
 H2O(L)         

 NOTE. WEIGHT FRACTION OF FUEL IN TOTAL FUELS AND OF OXIDANT IN TOTAL OXIDANTS






 WARNING!!  ASSIGNED pip =   0.00000 IS NOT PERMITTED
 TO BE LESS THAN  Pinj/Pc =  1.00441. POINT OMITTED (ROCKET)





              THEORETICAL ROCKET PERFORMANCE ASSUMING EQUILIBRIUM

            COMPOSITION DURING EXPANSION FROM FINITE AREA COMBUSTOR

 Pin =   113.1 PSIA
 Ac/At =  9.8267      Pinj/Pinf =  1.002199
 CASE =                

             REACTANT                    WT FRACTION      ENERGY      TEMP
                                          (SEE NOTE)     KJ/KG-MOL      K  
 OXIDANT     O2                           0.9791838      3822.235    426.330
 OXIDANT     H2O                          0.0124897   -237468.905    426.330
 OXIDANT     CO2                          0.0083265   -388405.803    426.330
 FUEL        PMMA                         1.0000000   -442140.000    293.150

 O/F=    0.94704  %FUEL= 51.359952  R,EQ.RATIO= 1.784033  PHI,EQ.RATIO= 2.067991

                 INJECTOR  COMB END  THROAT
 Pinj/P            1.0000   1.0044   1.7895
 P, BAR            7.8000   7.7657   4.3587
 T, K             2625.11  2624.11  2376.03
 RHO, KG/CU M    7.6339-1 7.6034-1 4.7256-1
 H, KJ/KG        -2327.13 -2329.39 -2890.45
 U, KJ/KG        -3348.88 -3350.74 -3812.82
 G, KJ/KG        -33522.7 -33515.3 -31128.0
 S, KJ/(KG)(K)    11.8835  11.8844  11.8844

 M, (1/n)          21.362   21.362   21.418
 (dLV/dLP)t      -1.00230 -1.00229 -1.00096
 (dLV/dLT)p        1.0509   1.0508   1.0231
 Cp, KJ/(KG)(K)    2.4737   2.4730   2.2294
 GAMMAs            1.2069   1.2070   1.2215
 SON VEL,M/SEC     1110.5   1110.3   1061.4
 MACH NUMBER        0.000    0.060    1.000

 PERFORMANCE PARAMETERS

 Ae/At                      9.8267  1.00000
 CSTAR, M/SEC               1551.6   1551.6
 CF                         0.0433   0.6841
 Ivac, M/SEC               15281.0   1930.4
 Isp, M/SEC                   67.1   1061.4


 MOLE FRACTIONS

 *CO              0.46914  0.46913  0.46548
 *CO2             0.08076  0.08078  0.08588
 *H               0.00694  0.00693  0.00315
 *H2              0.20762  0.20764  0.21423
 H2O              0.23345  0.23344  0.23059
 *O               0.00004  0.00004  0.00001
 *OH              0.00203  0.00203  0.00067
 *O2              0.00002  0.00002  0.00000

  * THERMODYNAMIC PROPERTIES FITTED TO 20000.K

    PRODUCTS WHICH WERE CONSIDERED BUT WHOSE MOLE FRACTIONS
    WERE LESS THAN 5.000000E-06 FOR ALL ASSIGNED CONDITIONS

 *C              *CH             CH2             CH3             CH2OH          
 CH3O            CH4             CH3OH           CH3OOH          COOH           
 *C2             C2H             C2H2,acetylene  C2H2,vinylidene CH2CO,ketene   
 O(CH)2O         HO(CO)2OH       C2H3,vinyl      CH3CO,acetyl    C2H4           
 C2H4O,ethylen-o CH3CHO,ethanal  CH3COOH         OHCH2COOH       C2H5           
 C2H6            C2H5OH          CH3OCH3         CH3O2CH3        C2O            
 *C3             C3H3,1-propynl  C3H3,2-propynl  C3H4,allene     C3H4,propyne   
 C3H4,cyclo-     C3H5,allyl      C3H6,propylene  C3H6,cyclo-     C3H6O,propylox 
 C3H6O,acetone   C3H6O,propanal  C3H7,n-propyl   C3H7,i-propyl   C3H8           
 C3H8O,1propanol C3H8O,2propanol C3O2            *C4             C4H2,butadiyne 
 C4H4,1,3-cyclo- C4H6,butadiene  C4H6,1butyne    C4H6,2butyne    C4H6,cyclo-    
 C4H8,1-butene   C4H8,cis2-buten C4H8,tr2-butene C4H8,isobutene  C4H8,cyclo-    
 (CH3COOH)2      C4H9,n-butyl    C4H9,i-butyl    C4H9,s-butyl    C4H9,t-butyl   
 C4H10,n-butane  C4H10,isobutane *C5             C5H6,1,3cyclo-  C5H8,cyclo-    
 C5H10,1-pentene C5H10,cyclo-    C5H11,pentyl    C5H11,t-pentyl  C5H12,n-pentane
 C5H12,i-pentane CH3C(CH3)2CH3   C6H2            C6H5,phenyl     C6H5O,phenoxy  
 C6H6            C6H5OH,phenol   C6H10,cyclo-    C6H12,1-hexene  C6H12,cyclo-   
 C6H13,n-hexyl   C6H14,n-hexane  C7H7,benzyl     C7H8            C7H8O,cresol-mx
 C7H14,1-heptene C7H15,n-heptyl  C7H16,n-heptane C7H16,2-methylh C8H8,styrene   
 C8H10,ethylbenz C8H16,1-octene  C8H17,n-octyl   C8H18,n-octane  C8H18,isooctane
 C9H19,n-nonyl   C10H8,naphthale C10H21,n-decyl  C12H9,o-bipheny C12H10,biphenyl
 HCO             HCCO            HO2             HCHO,formaldehy HCOOH          
 H2O2            (HCOOH)2        O3              C(gr)           H2O(cr)        
 H2O(L)         

 NOTE. WEIGHT FRACTION OF FUEL IN TOTAL FUELS AND OF OXIDANT IN TOTAL OXIDANTS






 WARNING!!  ASSIGNED pip =   0.00000 IS NOT PERMITTED
 TO BE LESS THAN  Pinj/Pc =  1.00441. POINT OMITTED (ROCKET)





              THEORETICAL ROCKET PERFORMANCE ASSUMING EQUILIBRIUM

            COMPOSITION DURING EXPANSION FROM FINITE AREA COMBUSTOR

 Pin =   113.1 PSIA
 Ac/At =  9.8267      Pinj/Pinf =  1.002199
 CASE =                

             REACTANT                    WT FRACTION      ENERGY      TEMP
                                          (SEE NOTE)     KJ/KG-MOL      K  
 OXIDANT     O2                           0.9791838      3822.235    426.330
 OXIDANT     H2O                          0.0124897   -237468.905    426.330
 OXIDANT     CO2                          0.0083265   -388405.803    426.330
 FUEL        PMMA                         1.0000000   -442140.000    293.150

 O/F=    0.94704  %FUEL= 51.359952  R,EQ.RATIO= 1.784033  PHI,EQ.RATIO= 2.067991

                 INJECTOR  COMB END  THROAT
 Pinj/P            1.0000   1.0044   1.7895
 P, BAR            7.8000   7.7657   4.3587
 T, K             2625.11  2624.11  2376.03
 RHO, KG/CU M    7.6339-1 7.6034-1 4.7256-1
 H, KJ/KG        -2327.13 -2329.39 -2890.45
 U, KJ/KG        -3348.88 -3350.74 -3812.82
 G, KJ/KG        -33522.7 -33515.3 -31128.0
 S, KJ/(KG)(K)    11.8835  11.8844  11.8844

 M, (1/n)          21.362   21.362   21.418
 (dLV/dLP)t      -1.00230 -1.00229 -1.00096
 (dLV/dLT)p        1.0509   1.0508   1.0231
 Cp, KJ/(KG)(K)    2.4737   2.4730   2.2294
 GAMMAs            1.2069   1.2070   1.2215
 SON VEL,M/SEC     1110.5   1110.3   1061.4
 MACH NUMBER        0.000    0.060    1.000

 PERFORMANCE PARAMETERS

 Ae/At                      9.8267  1.00000
 CSTAR, M/SEC               1551.6   1551.6
 CF                         0.0433   0.6841
 Ivac, M/SEC               15281.0   1930.4
 Isp, M/SEC                   67.1   1061.4


 MOLE FRACTIONS

 *CO              0.46914  0.46913  0.46548
 *CO2             0.08076  0.08078  0.08588
 *H               0.00694  0.00693  0.00315
 *H2              0.20762  0.20764  0.21423
 H2O              0.23345  0.23344  0.23059
 *O               0.00004  0.00004  0.00001
 *OH              0.00203  0.00203  0.00067
 *O2              0.00002  0.00002  0.00000

  * THERMODYNAMIC PROPERTIES FITTED TO 20000.K

    PRODUCTS WHICH WERE CONSIDERED BUT WHOSE MOLE FRACTIONS
    WERE LESS THAN 5.000000E-06 FOR ALL ASSIGNED CONDITIONS

 *C              *CH             CH2             CH3             CH2OH          
 CH3O            CH4             CH3OH           CH3OOH          COOH           
 *C2             C2H             C2H2,acetylene  C2H2,vinylidene CH2CO,ketene   
 O(CH)2O         HO(CO)2OH       C2H3,vinyl      CH3CO,acetyl    C2H4           
 C2H4O,ethylen-o CH3CHO,ethanal  CH3COOH         OHCH2COOH       C2H5           
 C2H6            C2H5OH          CH3OCH3         CH3O2CH3        C2O            
 *C3             C3H3,1-propynl  C3H3,2-propynl  C3H4,allene     C3H4,propyne   
 C3H4,cyclo-     C3H5,allyl      C3H6,propylene  C3H6,cyclo-     C3H6O,propylox 
 C3H6O,acetone   C3H6O,propanal  C3H7,n-propyl   C3H7,i-propyl   C3H8           
 C3H8O,1propanol C3H8O,2propanol C3O2            *C4             C4H2,butadiyne 
 C4H4,1,3-cyclo- C4H6,butadiene  C4H6,1butyne    C4H6,2butyne    C4H6,cyclo-    
 C4H8,1-butene   C4H8,cis2-buten C4H8,tr2-butene C4H8,isobutene  C4H8,cyclo-    
 (CH3COOH)2      C4H9,n-butyl    C4H9,i-butyl    C4H9,s-butyl    C4H9,t-butyl   
 C4H10,n-butane  C4H10,isobutane *C5             C5H6,1,3cyclo-  C5H8,cyclo-    
 C5H10,1-pentene C5H10,cyclo-    C5H11,pentyl    C5H11,t-pentyl  C5H12,n-pentane
 C5H12,i-pentane CH3C(CH3)2CH3   C6H2            C6H5,phenyl     C6H5O,phenoxy  
 C6H6            C6H5OH,phenol   C6H10,cyclo-    C6H12,1-hexene  C6H12,cyclo-   
 C6H13,n-hexyl   C6H14,n-hexane  C7H7,benzyl     C7H8            C7H8O,cresol-mx
 C7H14,1-heptene C7H15,n-heptyl  C7H16,n-heptane C7H16,2-methylh C8H8,styrene   
 C8H10,ethylbenz C8H16,1-octene  C8H17,n-octyl   C8H18,n-octane  C8H18,isooctane
 C9H19,n-nonyl   C10H8,naphthale C10H21,n-decyl  C12H9,o-bipheny C12H10,biphenyl
 HCO             HCCO            HO2             HCHO,formaldehy HCOOH          
 H2O2            (HCOOH)2        O3              C(gr)           H2O(cr)        
 H2O(L)         

 NOTE. WEIGHT FRACTION OF FUEL IN TOTAL FUELS AND OF OXIDANT IN TOTAL OXIDANTS






 WARNING!!  ASSIGNED pip =   0.00000 IS NOT PERMITTED
 TO BE LESS THAN  Pinj/Pc =  1.00441. POINT OMITTED (ROCKET)





              THEORETICAL ROCKET PERFORMANCE ASSUMING EQUILIBRIUM

            COMPOSITION DURING EXPANSION FROM FINITE AREA COMBUSTOR

 Pin =   113.1 PSIA
 Ac/At =  9.8267      Pinj/Pinf =  1.002199
 CASE =                

             REACTANT                    WT FRACTION      ENERGY      TEMP
                                          (SEE NOTE)     KJ/KG-MOL      K  
 OXIDANT     O2                           0.9791838      3822.235    426.330
 OXIDANT     H2O                          0.0124897   -237468.905    426.330
 OXIDANT     CO2                          0.0083265   -388405.803    426.330
 FUEL        PMMA                         1.0000000   -442140.000    293.150

 O/F=    0.94704  %FUEL= 51.359952  R,EQ.RATIO= 1.784033  PHI,EQ.RATIO= 2.067991

                 INJECTOR  COMB END  THROAT
 Pinj/P            1.0000   1.0044   1.7895
 P, BAR            7.8000   7.7657   4.3587
 T, K             2625.11  2624.11  2376.03
 RHO, KG/CU M    7.6339-1 7.6034-1 4.7256-1
 H, KJ/KG        -2327.13 -2329.39 -2890.45
 U, KJ/KG        -3348.88 -3350.74 -3812.82
 G, KJ/KG        -33522.7 -33515.3 -31128.0
 S, KJ/(KG)(K)    11.8835  11.8844  11.8844

 M, (1/n)          21.362   21.362   21.418
 (dLV/dLP)t      -1.00230 -1.00229 -1.00096
 (dLV/dLT)p        1.0509   1.0508   1.0231
 Cp, KJ/(KG)(K)    2.4737   2.4730   2.2294
 GAMMAs            1.2069   1.2070   1.2215
 SON VEL,M/SEC     1110.5   1110.3   1061.4
 MACH NUMBER        0.000    0.060    1.000

 PERFORMANCE PARAMETERS

 Ae/At                      9.8267  1.00000
 CSTAR, M/SEC               1551.6   1551.6
 CF                         0.0433   0.6841
 Ivac, M/SEC               15281.0   1930.4
 Isp, M/SEC                   67.1   1061.4


 MOLE FRACTIONS

 *CO              0.46914  0.46913  0.46548
 *CO2             0.08076  0.08078  0.08588
 *H               0.00694  0.00693  0.00315
 *H2              0.20762  0.20764  0.21423
 H2O              0.23345  0.23344  0.23059
 *O               0.00004  0.00004  0.00001
 *OH              0.00203  0.00203  0.00067
 *O2              0.00002  0.00002  0.00000

  * THERMODYNAMIC PROPERTIES FITTED TO 20000.K

    PRODUCTS WHICH WERE CONSIDERED BUT WHOSE MOLE FRACTIONS
    WERE LESS THAN 5.000000E-06 FOR ALL ASSIGNED CONDITIONS

 *C              *CH             CH2             CH3             CH2OH          
 CH3O            CH4             CH3OH           CH3OOH          COOH           
 *C2             C2H             C2H2,acetylene  C2H2,vinylidene CH2CO,ketene   
 O(CH)2O         HO(CO)2OH       C2H3,vinyl      CH3CO,acetyl    C2H4           
 C2H4O,ethylen-o CH3CHO,ethanal  CH3COOH         OHCH2COOH       C2H5           
 C2H6            C2H5OH          CH3OCH3         CH3O2CH3        C2O            
 *C3             C3H3,1-propynl  C3H3,2-propynl  C3H4,allene     C3H4,propyne   
 C3H4,cyclo-     C3H5,allyl      C3H6,propylene  C3H6,cyclo-     C3H6O,propylox 
 C3H6O,acetone   C3H6O,propanal  C3H7,n-propyl   C3H7,i-propyl   C3H8           
 C3H8O,1propanol C3H8O,2propanol C3O2            *C4             C4H2,butadiyne 
 C4H4,1,3-cyclo- C4H6,butadiene  C4H6,1butyne    C4H6,2butyne    C4H6,cyclo-    
 C4H8,1-butene   C4H8,cis2-buten C4H8,tr2-butene C4H8,isobutene  C4H8,cyclo-    
 (CH3COOH)2      C4H9,n-butyl    C4H9,i-butyl    C4H9,s-butyl    C4H9,t-butyl   
 C4H10,n-butane  C4H10,isobutane *C5             C5H6,1,3cyclo-  C5H8,cyclo-    
 C5H10,1-pentene C5H10,cyclo-    C5H11,pentyl    C5H11,t-pentyl  C5H12,n-pentane
 C5H12,i-pentane CH3C(CH3)2CH3   C6H2            C6H5,phenyl     C6H5O,phenoxy  
 C6H6            C6H5OH,phenol   C6H10,cyclo-    C6H12,1-hexene  C6H12,cyclo-   
 C6H13,n-hexyl   C6H14,n-hexane  C7H7,benzyl     C7H8            C7H8O,cresol-mx
 C7H14,1-heptene C7H15,n-heptyl  C7H16,n-heptane C7H16,2-methylh C8H8,styrene   
 C8H10,ethylbenz C8H16,1-octene  C8H17,n-octyl   C8H18,n-octane  C8H18,isooctane
 C9H19,n-nonyl   C10H8,naphthale C10H21,n-decyl  C12H9,o-bipheny C12H10,biphenyl
 HCO             HCCO            HO2             HCHO,formaldehy HCOOH          
 H2O2            (HCOOH)2        O3              C(gr)           H2O(cr)        
 H2O(L)         

 NOTE. WEIGHT FRACTION OF FUEL IN TOTAL FUELS AND OF OXIDANT IN TOTAL OXIDANTS





   4    4    1720.325     -24.869     -10.334     -11.106





              THEORETICAL ROCKET PERFORMANCE ASSUMING EQUILIBRIUM

            COMPOSITION DURING EXPANSION FROM FINITE AREA COMBUSTOR

 Pin =   113.1 PSIA
 Ac/At =  9.8267      Pinj/Pinf =  1.002199
 CASE =                

             REACTANT                    WT FRACTION      ENERGY      TEMP
                                          (SEE NOTE)     KJ/KG-MOL      K  
 OXIDANT     O2                           0.9791838      3822.235    426.330
 OXIDANT     H2O                          0.0124897   -237468.905    426.330
 OXIDANT     CO2                          0.0083265   -388405.803    426.330
 FUEL        PMMA                         1.0000000   -442140.000    293.150

 O/F=    0.94704  %FUEL= 51.359952  R,EQ.RATIO= 1.784033  PHI,EQ.RATIO= 2.067991

                 INJECTOR  COMB END  THROAT     EXIT
 Pinj/P            1.0000   1.0044   1.7895   9.8267
 P, BAR            7.8000   7.7657   4.3587  0.79376
 T, K             2625.11  2624.11  2376.03  1720.32
 RHO, KG/CU M    7.6339-1 7.6034-1 4.7256-1 1.1908-1
 H, KJ/KG        -2327.13 -2329.39 -2890.45 -4234.63
 U, KJ/KG        -3348.88 -3350.74 -3812.82 -4901.21
 G, KJ/KG        -33522.7 -33515.3 -31128.0 -24679.6
 S, KJ/(KG)(K)    11.8835  11.8844  11.8844  11.8844

 M, (1/n)          21.362   21.362   21.418   21.458
 (dLV/dLP)t      -1.00230 -1.00229 -1.00096 -1.00003
 (dLV/dLT)p        1.0509   1.0508   1.0231   1.0008
 Cp, KJ/(KG)(K)    2.4737   2.4730   2.2294   1.9773
 GAMMAs            1.2069   1.2070   1.2215   1.2442
 SON VEL,M/SEC     1110.5   1110.3   1061.4    910.7
 MACH NUMBER        0.000    0.060    1.000    2.145

 PERFORMANCE PARAMETERS

 Ae/At                      9.8267  1.00000   2.1566
 CSTAR, M/SEC               1551.6   1551.6   1551.6
 CF                         0.0433   0.6841   1.2588
 Ivac, M/SEC               15281.0   1930.4   2294.5
 Isp, M/SEC                   67.1   1061.4   1953.2


 MOLE FRACTIONS

 *CO              0.46914  0.46913  0.46548  0.44260
 *CO2             0.08076  0.08078  0.08588  0.10979
 *H               0.00694  0.00693  0.00315  0.00010
 *H2              0.20762  0.20764  0.21423  0.23957
 H2O              0.23345  0.23344  0.23059  0.20795
 *O               0.00004  0.00004  0.00001  0.00000
 *OH              0.00203  0.00203  0.00067  0.00001
 *O2              0.00002  0.00002  0.00000  0.00000

  * THERMODYNAMIC PROPERTIES FITTED TO 20000.K

    PRODUCTS WHICH WERE CONSIDERED BUT WHOSE MOLE FRACTIONS
    WERE LESS THAN 5.000000E-06 FOR ALL ASSIGNED CONDITIONS

 *C              *CH             CH2             CH3             CH2OH          
 CH3O            CH4             CH3OH           CH3OOH          COOH           
 *C2             C2H             C2H2,acetylene  C2H2,vinylidene CH2CO,ketene   
 O(CH)2O         HO(CO)2OH       C2H3,vinyl      CH3CO,acetyl    C2H4           
 C2H4O,ethylen-o CH3CHO,ethanal  CH3COOH         OHCH2COOH       C2H5           
 C2H6            C2H5OH          CH3OCH3         CH3O2CH3        C2O            
 *C3             C3H3,1-propynl  C3H3,2-propynl  C3H4,allene     C3H4,propyne   
 C3H4,cyclo-     C3H5,allyl      C3H6,propylene  C3H6,cyclo-     C3H6O,propylox 
 C3H6O,acetone   C3H6O,propanal  C3H7,n-propyl   C3H7,i-propyl   C3H8           
 C3H8O,1propanol C3H8O,2propanol C3O2            *C4             C4H2,butadiyne 
 C4H4,1,3-cyclo- C4H6,butadiene  C4H6,1butyne    C4H6,2butyne    C4H6,cyclo-    
 C4H8,1-butene   C4H8,cis2-buten C4H8,tr2-butene C4H8,isobutene  C4H8,cyclo-    
 (CH3COOH)2      C4H9,n-butyl    C4H9,i-butyl    C4H9,s-butyl    C4H9,t-butyl   
 C4H10,n-butane  C4H10,isobutane *C5             C5H6,1,3cyclo-  C5H8,cyclo-    
 C5H10,1-pentene C5H10,cyclo-    C5H11,pentyl    C5H11,t-pentyl  C5H12,n-pentane
 C5H12,i-pentane CH3C(CH3)2CH3   C6H2            C6H5,phenyl     C6H5O,phenoxy  
 C6H6            C6H5OH,phenol   C6H10,cyclo-    C6H12,1-hexene  C6H12,cyclo-   
 C6H13,n-hexyl   C6H14,n-hexane  C7H7,benzyl     C7H8            C7H8O,cresol-mx
 C7H14,1-heptene C7H15,n-heptyl  C7H16,n-heptane C7H16,2-methylh C8H8,styrene   
 C8H10,ethylbenz C8H16,1-octene  C8H17,n-octyl   C8H18,n-octane  C8H18,isooctane
 C9H19,n-nonyl   C10H8,naphthale C10H21,n-decyl  C12H9,o-bipheny C12H10,biphenyl
 HCO             HCCO            HO2             HCHO,formaldehy HCOOH          
 H2O2            (HCOOH)2        O3              C(gr)           H2O(cr)        
 H2O(L)         

 NOTE. WEIGHT FRACTION OF FUEL IN TOTAL FUELS AND OF OXIDANT IN TOTAL OXIDANTS



