
 *******************************************************************************

         NASA-GLENN CHEMICAL EQUILIBRIUM PROGRAM CEA2, MAY 21, 2004
                   BY  BONNIE MCBRIDE AND SANFORD GORDON
      REFS: NASA RP-1311, PART I, 1994 AND NASA RP-1311, PART II, 1996

 *******************************************************************************



 prob rocket fac p,bar=68,ac/at=1.00,
 super=25, pi/pe=68
 reac
   fuel = CH4  moles=2.00   t(k)= 298.15
   oxid = N2O  moles=0.2 t(k)= 298.15
   oxid = O2   moles=0.8 t(k)= 298.15
 end

 OPTIONS: TP=F  HP=F  SP=F  TV=F  UV=F  SV=F  DETN=F  SHOCK=F  REFL=F  INCD=F
 RKT=T  FROZ=F  EQL=T  IONS=F  SIUNIT=T  DEBUGF=F  SHKDBG=F  DETDBG=F  TRNSPT=F

 TRACE= 0.00E+00  S/R= 0.000000E+00  H/R= 0.000000E+00  U/R= 0.000000E+00

 Pc,BAR =    68.000000

 Pc/P =    68.0000

 SUBSONIC AREA RATIOS =

 SUPERSONIC AREA RATIOS =    25.0000

 NFZ=  1  Mdot/Ac= 0.000000E+00  Ac/At= 1.000000E+00

    REACTANT           MOLES    (ENERGY/R),K   TEMP,K  DENSITY
        EXPLODED FORMULA
 F: CH4              2.000000  -0.897227E+04   298.15  0.0000
          C  1.00000  H  4.00000
 O: N2O              0.200000   0.981417E+04   298.15  0.0000
          N  2.00000  O  1.00000
 O: O2               0.800000  -0.154035E-05   298.15  0.0000
          O  2.00000

  SPECIES BEING CONSIDERED IN THIS SYSTEM
 (CONDENSED PHASE MAY HAVE NAME LISTED SEVERAL TIMES)
  LAST thermo.inp UPDATE:    9/09/04

  g 7/97  *C               tpis79  *CH              g 4/02  CH2            
  g 4/02  CH3              g11/00  CH2OH            g 7/00  CH3O           
  g 8/99  CH4              g 7/00  CH3OH            srd 01  CH3OOH         
  g 8/99  *CN              g12/99  CNN              tpis79  *CO            
  g 9/99  *CO2             tpis91  COOH             tpis91  *C2            
  g 6/01  C2H              g 1/91  C2H2,acetylene   g 5/01  C2H2,vinylidene
  g 4/02  CH2CO,ketene     g 3/02  O(CH)2O          srd 01  HO(CO)2OH      
  g 7/01  C2H3,vinyl       g 9/00  CH3CN            g 6/96  CH3CO,acetyl   
  g 1/00  C2H4             g 8/88  C2H4O,ethylen-o  g 8/88  CH3CHO,ethanal 
  g 6/00  CH3COOH          srd 01  OHCH2COOH        g 7/00  C2H5           
  g 7/00  C2H6             g 8/88  CH3N2CH3         g 8/88  C2H5OH         
  g 7/00  CH3OCH3          srd 01  CH3O2CH3         g 7/00  CCN            
  tpis91  CNC              srd 01  OCCN             tpis79  C2N2           
  g 8/00  C2O              tpis79  *C3              n 4/98  C3H3,1-propynl 
  n 4/98  C3H3,2-propynl   g 2/00  C3H4,allene      g 1/00  C3H4,propyne   
  g 5/90  C3H4,cyclo-      g 3/01  C3H5,allyl       g 2/00  C3H6,propylene 
  g 1/00  C3H6,cyclo-      g 6/01  C3H6O,propylox   g 6/97  C3H6O,acetone  
  g 1/02  C3H6O,propanal   g 7/01  C3H7,n-propyl    g 9/85  C3H7,i-propyl  
  g 2/00  C3H8             g 2/00  C3H8O,1propanol  g 2/00  C3H8O,2propanol
  srd 01  CNCOCN           g 7/88  C3O2             g tpis  *C4            
  g 7/01  C4H2,butadiyne   g 8/00  C4H4,1,3-cyclo-  n10/92  C4H6,butadiene 
  n10/93  C4H6,1butyne     n10/93  C4H6,2butyne     g 8/00  C4H6,cyclo-    
  n 4/88  C4H8,1-butene    n 4/88  C4H8,cis2-buten  n 4/88  C4H8,tr2-butene
  n 4/88  C4H8,isobutene   g 8/00  C4H8,cyclo-      g10/00  (CH3COOH)2     
  n10/84  C4H9,n-butyl     n10/84  C4H9,i-butyl     g 1/93  C4H9,s-butyl   
  g 1/93  C4H9,t-butyl     g12/00  C4H10,n-butane   g 8/00  C4H10,isobutane
  g 6/01  C4N2             g 8/00  *C5              g 5/90  C5H6,1,3cyclo- 
  g 1/93  C5H8,cyclo-      n 4/87  C5H10,1-pentene  g 2/01  C5H10,cyclo-   
  n10/84  C5H11,pentyl     g 1/93  C5H11,t-pentyl   n10/85  C5H12,n-pentane
  n10/85  C5H12,i-pentane  n10/85  CH3C(CH3)2CH3    g 2/93  C6H2           
  g11/00  C6H5,phenyl      g 8/00  C6H5O,phenoxy    g 8/00  C6H6           
  g 8/00  C6H5OH,phenol    g 1/93  C6H10,cyclo-     n 4/87  C6H12,1-hexene 
  g 6/90  C6H12,cyclo-     n10/83  C6H13,n-hexyl    g 6/01  C6H14,n-hexane 
  g 7/01  C7H7,benzyl      g 1/93  C7H8             g12/00  C7H8O,cresol-mx
  n 4/87  C7H14,1-heptene  n10/83  C7H15,n-heptyl   n10/85  C7H16,n-heptane
  n10/85  C7H16,2-methylh  n 4/89  C8H8,styrene     n10/86  C8H10,ethylbenz
  n 4/87  C8H16,1-octene   n10/83  C8H17,n-octyl    n 4/85  C8H18,n-octane 
  n 4/85  C8H18,isooctane  n10/83  C9H19,n-nonyl    g 3/01  C10H8,naphthale
  n10/83  C10H21,n-decyl   g 8/00  C12H9,o-bipheny  g 8/00  C12H10,biphenyl
  g 6/97  *H               g 6/01  HCN              g 1/01  HCO            
  tpis89  HCCN             g 6/01  HCCO             g 6/01  HNC            
  g 7/00  HNCO             g10/01  HNO              tpis89  HNO2           
  g 5/99  HNO3             g 4/02  HO2              tpis78  *H2            
  g 5/01  HCHO,formaldehy  g 6/01  HCOOH            g 8/89  H2O            
  g 6/99  H2O2             g 6/01  (HCOOH)2         g 5/97  *N             
  g 6/01  NCO              g 4/99  *NH              g 3/01  NH2            
  tpis89  NH3              tpis89  NH2OH            tpis89  *NO            
  g 4/99  NO2              j12/64  NO3              tpis78  *N2            
  g 6/01  NCN              g 5/99  N2H2             tpis89  NH2NO2         
  g 4/99  N2H4             g 4/99  N2O              g 4/99  N2O3           
  tpis89  N2O4             g 4/99  N2O5             tpis89  N3             
  g 4/99  N3H              g 5/97  *O               g 4/02  *OH            
  tpis89  *O2              g 8/01  O3               n 4/83  C(gr)          
  n 4/83  C(gr)            n 4/83  C(gr)            g11/99  H2O(cr)        
  g 8/01  H2O(L)           g 8/01  H2O(L)         

 O/F =   1.072205

                       EFFECTIVE FUEL     EFFECTIVE OXIDANT        MIXTURE
 ENTHALPY                  h(2)/R              h(1)/R               h0/R
 (KG-MOL)(K)/KG       -0.55928246E+03      0.57056464E+02     -0.24037503E+03

 KG-FORM.WT./KG             bi(2)               bi(1)               b0i
  *C                   0.62334580E-01      0.00000000E+00      0.30081286E-01
  *H                   0.24933832E+00      0.00000000E+00      0.12032514E+00
  *N                   0.00000000E+00      0.11627366E-01      0.60162571E-02
  *O                   0.00000000E+00      0.52323148E-01      0.27073157E-01

 POINT ITN      T            C           H           N           O 

   1   18    1303.253      -1.875      -7.355     -12.290     -31.809

 ADD  C(gr)          
   1    2    1304.377      -1.940      -7.350     -12.292     -31.755

   2    3    1283.541      -1.912      -7.442     -12.398     -32.156

 Pinf/Pt = 1.755089
   3    4    1204.452      -1.806      -7.636     -12.579     -33.412

 Pinf/Pt = 1.746947
   3    2    1205.060      -1.807      -7.634     -12.577     -33.402

 Pinf/Pt = 1.747004
   3    1    1205.056      -1.807      -7.634     -12.578     -33.402

   4    4    1212.412      -1.817      -7.614     -12.559     -33.277

   4    3    1208.850      -1.812      -7.624     -12.568     -33.337

   4    2    1206.983      -1.810      -7.629     -12.573     -33.369

   4    2    1206.027      -1.808      -7.631     -12.575     -33.385

   4    2    1205.543      -1.808      -7.633     -12.576     -33.394

   2    3    1286.728      -1.916      -7.427     -12.381     -32.094

 Pinf/Pt = 1.755159
   3    4    1207.308      -1.810      -7.621     -12.562     -33.350

 Pinf/Pt = 1.747042
   3    2    1207.917      -1.811      -7.619     -12.561     -33.339

 Pinf/Pt = 1.747099
   3    1    1207.912      -1.811      -7.619     -12.561     -33.339

   4    4    1215.300      -1.821      -7.600     -12.542     -33.214

   4    3    1211.723      -1.816      -7.609     -12.551     -33.275

   4    2    1209.848      -1.814      -7.614     -12.556     -33.307

   4    2    1208.888      -1.812      -7.617     -12.558     -33.323

   4    2    1208.402      -1.812      -7.618     -12.560     -33.331

 END OF CHAMBER ITERATIONS
   4    5     875.957      -1.345      -8.930     -13.813     -41.567

   5    4     761.225      -1.180      -9.621     -14.459     -46.233

   5    3     782.922      -1.211      -9.479     -14.329     -45.244

   5    2     782.983      -1.211      -9.479     -14.328     -45.241






              THEORETICAL ROCKET PERFORMANCE ASSUMING EQUILIBRIUM

            COMPOSITION DURING EXPANSION FROM FINITE AREA COMBUSTOR

 Pin =   986.3 PSIA
 Ac/At =  1.0000      Pinj/Pinf =  1.236992
 CASE =                

             REACTANT                       MOLES         ENERGY      TEMP
                                                         KJ/KG-MOL      K
 FUEL        CH4                          2.0000000    -74600.000    298.150
 OXIDANT     N2O                          0.2000000     81600.000    298.150
 OXIDANT     O2                           0.8000000        -0.000    298.150

 O/F=    1.07220  %FUEL= 48.257782  R,EQ.RATIO= 4.444444  PHI,EQ.RATIO= 4.444444

                 INJECTOR  COMB END  THROAT     EXIT     EXIT
 Pinj/P            1.0000   2.1531   2.1611   68.000   256.59
 P, BAR            68.000   31.582   31.465   1.0000  0.26501
 T, K             1304.38  1208.40  1207.91   875.96   782.98
 RHO, KG/CU M    8.4760 0 4.2882 0 4.2745 0 2.0699-1 6.3692-2
 H, KJ/KG        -1998.60 -2423.24 -2425.98 -4482.52 -5078.49
 U, KJ/KG        -2800.86 -3159.73 -3162.09 -4965.64 -5494.57
 G, KJ/KG        -20350.0 -19583.0 -19578.8 -16921.5 -16197.2
 S, KJ/(KG)(K)    14.0691  14.2004  14.2004  14.2004  14.2004

 M, (1/n)          13.518   13.642   13.644   15.075   15.646
 MW, MOL WT        13.394   13.164   13.164   12.765   12.787
 (dLV/dLP)t      -1.11070 -1.11345 -1.11347 -1.10039 -1.08901
 (dLV/dLT)p        2.1728   2.3166   2.3175   2.5109   2.3877
 Cp, KJ/(KG)(K)   11.2244  12.9629  12.9727  16.3141  15.0044
 GAMMAs            1.1737   1.1613   1.1612   1.1271   1.1273
 SON VEL,M/SEC      970.4    924.8    924.5    737.9    684.9
 MACH NUMBER        0.000    0.997    1.000    3.021    3.624

 PERFORMANCE PARAMETERS

 Ae/At                      1.0000   1.0000   8.5658   25.000
 CSTAR, M/SEC               1391.0   1391.0   1391.0   1391.0
 CF                         0.6625   0.6646   1.6023   1.7842
 Ivac, M/SEC                1720.7   1720.7   2445.6   2649.5
 Isp, M/SEC                  921.6    924.5   2228.9   2481.9


 MOLE FRACTIONS

 CH4              0.12406  0.11353  0.11351  0.09513  0.09616
 *CO              0.24859  0.22059  0.22041  0.07180  0.03537
 *CO2             0.02084  0.02678  0.02682  0.06379  0.07034
 C2H4             0.00003  0.00001  0.00001  0.00000  0.00000
 C2H6             0.00004  0.00002  0.00002  0.00000  0.00000
 HCN              0.00004  0.00001  0.00001  0.00000  0.00000
 *H2              0.48429  0.48198  0.48192  0.43136  0.40675
 H2O              0.07233  0.08226  0.08234  0.14621  0.17012
 NH3              0.00057  0.00040  0.00040  0.00010  0.00006
 *N2              0.03999  0.03939  0.03939  0.03835  0.03843
 C(gr)            0.00921  0.03502  0.03516  0.15327  0.18277

  * THERMODYNAMIC PROPERTIES FITTED TO 20000.K

    PRODUCTS WHICH WERE CONSIDERED BUT WHOSE MOLE FRACTIONS
    WERE LESS THAN 5.000000E-06 FOR ALL ASSIGNED CONDITIONS

 *C              *CH             CH2             CH3             CH2OH          
 CH3O            CH3OH           CH3OOH          *CN             CNN            
 COOH            *C2             C2H             C2H2,acetylene  C2H2,vinylidene
 CH2CO,ketene    O(CH)2O         HO(CO)2OH       C2H3,vinyl      CH3CN          
 CH3CO,acetyl    C2H4O,ethylen-o CH3CHO,ethanal  CH3COOH         OHCH2COOH      
 C2H5            CH3N2CH3        C2H5OH          CH3OCH3         CH3O2CH3       
 CCN             CNC             OCCN            C2N2            C2O            
 *C3             C3H3,1-propynl  C3H3,2-propynl  C3H4,allene     C3H4,propyne   
 C3H4,cyclo-     C3H5,allyl      C3H6,propylene  C3H6,cyclo-     C3H6O,propylox 
 C3H6O,acetone   C3H6O,propanal  C3H7,n-propyl   C3H7,i-propyl   C3H8           
 C3H8O,1propanol C3H8O,2propanol CNCOCN          C3O2            *C4            
 C4H2,butadiyne  C4H4,1,3-cyclo- C4H6,butadiene  C4H6,1butyne    C4H6,2butyne   
 C4H6,cyclo-     C4H8,1-butene   C4H8,cis2-buten C4H8,tr2-butene C4H8,isobutene 
 C4H8,cyclo-     (CH3COOH)2      C4H9,n-butyl    C4H9,i-butyl    C4H9,s-butyl   
 C4H9,t-butyl    C4H10,n-butane  C4H10,isobutane C4N2            *C5            
 C5H6,1,3cyclo-  C5H8,cyclo-     C5H10,1-pentene C5H10,cyclo-    C5H11,pentyl   
 C5H11,t-pentyl  C5H12,n-pentane C5H12,i-pentane CH3C(CH3)2CH3   C6H2           
 C6H5,phenyl     C6H5O,phenoxy   C6H6            C6H5OH,phenol   C6H10,cyclo-   
 C6H12,1-hexene  C6H12,cyclo-    C6H13,n-hexyl   C6H14,n-hexane  C7H7,benzyl    
 C7H8            C7H8O,cresol-mx C7H14,1-heptene C7H15,n-heptyl  C7H16,n-heptane
 C7H16,2-methylh C8H8,styrene    C8H10,ethylbenz C8H16,1-octene  C8H17,n-octyl  
 C8H18,n-octane  C8H18,isooctane C9H19,n-nonyl   C10H8,naphthale C10H21,n-decyl 
 C12H9,o-bipheny C12H10,biphenyl *H              HCO             HCCN           
 HCCO            HNC             HNCO            HNO             HNO2           
 HNO3            HO2             HCHO,formaldehy HCOOH           H2O2           
 (HCOOH)2        *N              NCO             *NH             NH2            
 NH2OH           *NO             NO2             NO3             NCN            
 N2H2            NH2NO2          N2H4            N2O             N2O3           
 N2O4            N2O5            N3              N3H             *O             
 *OH             *O2             O3              H2O(cr)         H2O(L)         



