
 *******************************************************************************

         NASA-GLENN CHEMICAL EQUILIBRIUM PROGRAM CEA2, MAY 21, 2004
                   BY  BONNIE MCBRIDE AND SANFORD GORDON
      REFS: NASA RP-1311, PART I, 1994 AND NASA RP-1311, PART II, 1996

 *******************************************************************************



 prob rocket fac p,bar=8.16,ac/at=11.910064616,
 o/f=0.97738243135, pi/pe=1, eq
 react
 	oxid=O2  wt=0.976933949452	t,k=484.5
 	oxid=H2O wt=0.0138396303287	t,k=484.5
 	oxid=CO2 wt=0.00922642021911	t,k=484.5
 	fuel=PMMA  wt=100 t,k=293.15
 	h,kj/mol=-442.14  C 5 H 8 O 2
 end

 OPTIONS: TP=F  HP=F  SP=F  TV=F  UV=F  SV=F  DETN=F  SHOCK=F  REFL=F  INCD=F
 RKT=T  FROZ=F  EQL=T  IONS=F  SIUNIT=T  DEBUGF=F  SHKDBG=F  DETDBG=T  TRNSPT=F

 TRACE= 0.00E+00  S/R= 0.000000E+00  H/R= 0.000000E+00  U/R= 0.000000E+00

 Pc,BAR =     8.160000

 Pc/P =     1.0000

 SUBSONIC AREA RATIOS =

 SUPERSONIC AREA RATIOS =

 NFZ=  1  Mdot/Ac= 0.000000E+00  Ac/At= 1.191006E+01

    REACTANT          WT.FRAC   (ENERGY/R),K   TEMP,K  DENSITY
        EXPLODED FORMULA
 O: O2               0.976934   0.674099E+03   484.50  0.0000
          O  2.00000
 O: H2O              0.013840  -0.283175E+05   484.50  0.0000
          H  2.00000  O  1.00000
 O: CO2              0.009226  -0.464118E+05   484.50  0.0000
          C  1.00000  O  2.00000
 F: PMMA             1.000000  -0.531769E+05   293.15  0.0000
          C  5.00000  H  8.00000  O  2.00000

  SPECIES BEING CONSIDERED IN THIS SYSTEM
 (CONDENSED PHASE MAY HAVE NAME LISTED SEVERAL TIMES)
  LAST thermo.inp UPDATE:    9/09/04

  g 7/97  *C               tpis79  *CH              g 4/02  CH2            
  g 4/02  CH3              g11/00  CH2OH            g 7/00  CH3O           
  g 8/99  CH4              g 7/00  CH3OH            srd 01  CH3OOH         
  tpis79  *CO              g 9/99  *CO2             tpis91  COOH           
  tpis91  *C2              g 6/01  C2H              g 1/91  C2H2,acetylene 
  g 5/01  C2H2,vinylidene  g 4/02  CH2CO,ketene     g 3/02  O(CH)2O        
  srd 01  HO(CO)2OH        g 7/01  C2H3,vinyl       g 6/96  CH3CO,acetyl   
  g 1/00  C2H4             g 8/88  C2H4O,ethylen-o  g 8/88  CH3CHO,ethanal 
  g 6/00  CH3COOH          srd 01  OHCH2COOH        g 7/00  C2H5           
  g 7/00  C2H6             g 8/88  C2H5OH           g 7/00  CH3OCH3        
  srd 01  CH3O2CH3         g 8/00  C2O              tpis79  *C3            
  n 4/98  C3H3,1-propynl   n 4/98  C3H3,2-propynl   g 2/00  C3H4,allene    
  g 1/00  C3H4,propyne     g 5/90  C3H4,cyclo-      g 3/01  C3H5,allyl     
  g 2/00  C3H6,propylene   g 1/00  C3H6,cyclo-      g 6/01  C3H6O,propylox 
  g 6/97  C3H6O,acetone    g 1/02  C3H6O,propanal   g 7/01  C3H7,n-propyl  
  g 9/85  C3H7,i-propyl    g 2/00  C3H8             g 2/00  C3H8O,1propanol
  g 2/00  C3H8O,2propanol  g 7/88  C3O2             g tpis  *C4            
  g 7/01  C4H2,butadiyne   g 8/00  C4H4,1,3-cyclo-  n10/92  C4H6,butadiene 
  n10/93  C4H6,1butyne     n10/93  C4H6,2butyne     g 8/00  C4H6,cyclo-    
  n 4/88  C4H8,1-butene    n 4/88  C4H8,cis2-buten  n 4/88  C4H8,tr2-butene
  n 4/88  C4H8,isobutene   g 8/00  C4H8,cyclo-      g10/00  (CH3COOH)2     
  n10/84  C4H9,n-butyl     n10/84  C4H9,i-butyl     g 1/93  C4H9,s-butyl   
  g 1/93  C4H9,t-butyl     g12/00  C4H10,n-butane   g 8/00  C4H10,isobutane
  g 8/00  *C5              g 5/90  C5H6,1,3cyclo-   g 1/93  C5H8,cyclo-    
  n 4/87  C5H10,1-pentene  g 2/01  C5H10,cyclo-     n10/84  C5H11,pentyl   
  g 1/93  C5H11,t-pentyl   n10/85  C5H12,n-pentane  n10/85  C5H12,i-pentane
  n10/85  CH3C(CH3)2CH3    g 2/93  C6H2             g11/00  C6H5,phenyl    
  g 8/00  C6H5O,phenoxy    g 8/00  C6H6             g 8/00  C6H5OH,phenol  
  g 1/93  C6H10,cyclo-     n 4/87  C6H12,1-hexene   g 6/90  C6H12,cyclo-   
  n10/83  C6H13,n-hexyl    g 6/01  C6H14,n-hexane   g 7/01  C7H7,benzyl    
  g 1/93  C7H8             g12/00  C7H8O,cresol-mx  n 4/87  C7H14,1-heptene
  n10/83  C7H15,n-heptyl   n10/85  C7H16,n-heptane  n10/85  C7H16,2-methylh
  n 4/89  C8H8,styrene     n10/86  C8H10,ethylbenz  n 4/87  C8H16,1-octene 
  n10/83  C8H17,n-octyl    n 4/85  C8H18,n-octane   n 4/85  C8H18,isooctane
  n10/83  C9H19,n-nonyl    g 3/01  C10H8,naphthale  n10/83  C10H21,n-decyl 
  g 8/00  C12H9,o-bipheny  g 8/00  C12H10,biphenyl  g 6/97  *H             
  g 1/01  HCO              g 6/01  HCCO             g 4/02  HO2            
  tpis78  *H2              g 5/01  HCHO,formaldehy  g 6/01  HCOOH          
  g 8/89  H2O              g 6/99  H2O2             g 6/01  (HCOOH)2       
  g 5/97  *O               g 4/02  *OH              tpis89  *O2            
  g 8/01  O3               n 4/83  C(gr)            n 4/83  C(gr)          
  n 4/83  C(gr)            g11/99  H2O(cr)          g 8/01  H2O(L)         
  g 8/01  H2O(L)         

 O/F =   0.977382

                       EFFECTIVE FUEL     EFFECTIVE OXIDANT        MIXTURE
 ENTHALPY                  h(2)/R              h(1)/R               h0/R
 (KG-MOL)(K)/KG       -0.53115398E+03     -0.10903543E+02     -0.27400411E+03

 KG-FORM.WT./KG             bi(2)               bi(1)               b0i
  *O                   0.19976863E-01      0.62248170E-01      0.40870764E-01
  *H                   0.79907451E-01      0.15364324E-02      0.41170151E-01
  *C                   0.49942157E-01      0.20964610E-03      0.25360325E-01

 POINT ITN      T            O           H           C 
   1   22    2710.221     -18.896     -10.015     -13.465
   2    2    2709.371     -18.899     -10.030     -13.493
 Pinf/Pt = 1.769798
   3    4    2467.588     -19.855     -10.139     -13.254
 Pinf/Pt = 1.779861
   3    2    2465.203     -19.866     -10.140     -13.251
 Pinf/Pt = 1.779954
   3    1    2465.181     -19.866     -10.140     -13.251
   4    1    2709.267     -18.899     -10.030     -13.493
   4    1    2709.078     -18.900     -10.030     -13.492
   4    2    2708.852     -18.901     -10.030     -13.492
   4    1    2708.749     -18.901     -10.030     -13.492
   4    1    2708.738     -18.901     -10.030     -13.492
   2    2    2710.180     -18.896     -10.016     -13.466
 Pinf/Pt = 1.769995
   3    4    2467.908     -19.854     -10.125     -13.227
 Pinf/Pt = 1.780012
   3    2    2465.531     -19.864     -10.126     -13.224
 Pinf/Pt = 1.780104
   3    1    2465.509     -19.864     -10.126     -13.224
   4    1    2710.075     -18.896     -10.016     -13.466
   4    1    2709.886     -18.897     -10.016     -13.466
   4    2    2709.660     -18.898     -10.016     -13.466
   4    1    2709.556     -18.898     -10.016     -13.466
   4    1    2709.545     -18.898     -10.016     -13.466
 END OF CHAMBER ITERATIONS

 WARNING!!  ASSIGNED pip =   1.00000 IS NOT PERMITTED
 TO BE LESS THAN  Pinj/Pc =  1.00298. POINT OMITTED (ROCKET)





              THEORETICAL ROCKET PERFORMANCE ASSUMING EQUILIBRIUM

            COMPOSITION DURING EXPANSION FROM FINITE AREA COMBUSTOR

 Pin =   118.4 PSIA
 Ac/At = 11.9101      Pinj/Pinf =  1.001488
 CASE =                

             REACTANT                    WT FRACTION      ENERGY      TEMP
                                          (SEE NOTE)     KJ/KG-MOL      K  
 OXIDANT     O2                           0.9769339      5604.800    484.500
 OXIDANT     H2O                          0.0138396   -235445.986    484.500
 OXIDANT     CO2                          0.0092264   -385891.168    484.500
 FUEL        PMMA                         1.0000000   -442140.000    293.150

 O/F=    0.97738  %FUEL= 50.571907  R,EQ.RATIO= 1.744663  PHI,EQ.RATIO= 2.008411

                 INJECTOR  COMB END  THROAT
 Pinj/P            1.0000   1.0030   1.7828
 P, BAR            8.1600   8.1357   4.5772
 T, K             2710.22  2709.54  2465.51
 RHO, KG/CU M    7.8317-1 7.8104-1 4.8457-1
 H, KJ/KG        -2278.21 -2279.76 -2850.81
 U, KJ/KG        -3320.13 -3321.42 -3795.40
 G, KJ/KG        -34388.8 -34383.9 -32063.5
 S, KJ/(KG)(K)    11.8480  11.8485  11.8485

 M, (1/n)          21.627   21.628   21.702
 (dLV/dLP)t      -1.00322 -1.00321 -1.00145
 (dLV/dLT)p        1.0698   1.0697   1.0341
 Cp, KJ/(KG)(K)    2.6173   2.6167   2.3191
 GAMMAs            1.1975   1.1975   1.2124
 SON VEL,M/SEC     1117.0   1116.9   1070.1
 MACH NUMBER        0.000    0.050    1.000

 PERFORMANCE PARAMETERS

 Ae/At                      11.911   1.0000
 CSTAR, M/SEC               1571.2   1571.2
 CF                         0.0355   0.6811
 Ivac, M/SEC               18742.9   1952.8
 Isp, M/SEC                   55.7   1070.1


 MOLE FRACTIONS

 *CO              0.46179  0.46178  0.45874
 *CO2             0.08668  0.08670  0.09163
 *H               0.00911  0.00910  0.00452
 *H2              0.19369  0.19370  0.20014
 H2O              0.24532  0.24532  0.24374
 *O               0.00009  0.00009  0.00002
 *OH              0.00326  0.00326  0.00121
 *O2              0.00005  0.00005  0.00001

  * THERMODYNAMIC PROPERTIES FITTED TO 20000.K

    PRODUCTS WHICH WERE CONSIDERED BUT WHOSE MOLE FRACTIONS
    WERE LESS THAN 5.000000E-06 FOR ALL ASSIGNED CONDITIONS

 *C              *CH             CH2             CH3             CH2OH          
 CH3O            CH4             CH3OH           CH3OOH          COOH           
 *C2             C2H             C2H2,acetylene  C2H2,vinylidene CH2CO,ketene   
 O(CH)2O         HO(CO)2OH       C2H3,vinyl      CH3CO,acetyl    C2H4           
 C2H4O,ethylen-o CH3CHO,ethanal  CH3COOH         OHCH2COOH       C2H5           
 C2H6            C2H5OH          CH3OCH3         CH3O2CH3        C2O            
 *C3             C3H3,1-propynl  C3H3,2-propynl  C3H4,allene     C3H4,propyne   
 C3H4,cyclo-     C3H5,allyl      C3H6,propylene  C3H6,cyclo-     C3H6O,propylox 
 C3H6O,acetone   C3H6O,propanal  C3H7,n-propyl   C3H7,i-propyl   C3H8           
 C3H8O,1propanol C3H8O,2propanol C3O2            *C4             C4H2,butadiyne 
 C4H4,1,3-cyclo- C4H6,butadiene  C4H6,1butyne    C4H6,2butyne    C4H6,cyclo-    
 C4H8,1-butene   C4H8,cis2-buten C4H8,tr2-butene C4H8,isobutene  C4H8,cyclo-    
 (CH3COOH)2      C4H9,n-butyl    C4H9,i-butyl    C4H9,s-butyl    C4H9,t-butyl   
 C4H10,n-butane  C4H10,isobutane *C5             C5H6,1,3cyclo-  C5H8,cyclo-    
 C5H10,1-pentene C5H10,cyclo-    C5H11,pentyl    C5H11,t-pentyl  C5H12,n-pentane
 C5H12,i-pentane CH3C(CH3)2CH3   C6H2            C6H5,phenyl     C6H5O,phenoxy  
 C6H6            C6H5OH,phenol   C6H10,cyclo-    C6H12,1-hexene  C6H12,cyclo-   
 C6H13,n-hexyl   C6H14,n-hexane  C7H7,benzyl     C7H8            C7H8O,cresol-mx
 C7H14,1-heptene C7H15,n-heptyl  C7H16,n-heptane C7H16,2-methylh C8H8,styrene   
 C8H10,ethylbenz C8H16,1-octene  C8H17,n-octyl   C8H18,n-octane  C8H18,isooctane
 C9H19,n-nonyl   C10H8,naphthale C10H21,n-decyl  C12H9,o-bipheny C12H10,biphenyl
 HCO             HCCO            HO2             HCHO,formaldehy HCOOH          
 H2O2            (HCOOH)2        O3              C(gr)           H2O(cr)        
 H2O(L)         

 NOTE. WEIGHT FRACTION OF FUEL IN TOTAL FUELS AND OF OXIDANT IN TOTAL OXIDANTS






 WARNING!!  ASSIGNED pip =   0.00000 IS NOT PERMITTED
 TO BE LESS THAN  Pinj/Pc =  1.00298. POINT OMITTED (ROCKET)





              THEORETICAL ROCKET PERFORMANCE ASSUMING EQUILIBRIUM

            COMPOSITION DURING EXPANSION FROM FINITE AREA COMBUSTOR

 Pin =   118.4 PSIA
 Ac/At = 11.9101      Pinj/Pinf =  1.001488
 CASE =                

             REACTANT                    WT FRACTION      ENERGY      TEMP
                                          (SEE NOTE)     KJ/KG-MOL      K  
 OXIDANT     O2                           0.9769339      5604.800    484.500
 OXIDANT     H2O                          0.0138396   -235445.986    484.500
 OXIDANT     CO2                          0.0092264   -385891.168    484.500
 FUEL        PMMA                         1.0000000   -442140.000    293.150

 O/F=    0.97738  %FUEL= 50.571907  R,EQ.RATIO= 1.744663  PHI,EQ.RATIO= 2.008411

                 INJECTOR  COMB END  THROAT
 Pinj/P            1.0000   1.0030   1.7828
 P, BAR            8.1600   8.1357   4.5772
 T, K             2710.22  2709.54  2465.51
 RHO, KG/CU M    7.8317-1 7.8104-1 4.8457-1
 H, KJ/KG        -2278.21 -2279.76 -2850.81
 U, KJ/KG        -3320.13 -3321.42 -3795.40
 G, KJ/KG        -34388.8 -34383.9 -32063.5
 S, KJ/(KG)(K)    11.8480  11.8485  11.8485

 M, (1/n)          21.627   21.628   21.702
 (dLV/dLP)t      -1.00322 -1.00321 -1.00145
 (dLV/dLT)p        1.0698   1.0697   1.0341
 Cp, KJ/(KG)(K)    2.6173   2.6167   2.3191
 GAMMAs            1.1975   1.1975   1.2124
 SON VEL,M/SEC     1117.0   1116.9   1070.1
 MACH NUMBER        0.000    0.050    1.000

 PERFORMANCE PARAMETERS

 Ae/At                      11.911   1.0000
 CSTAR, M/SEC               1571.2   1571.2
 CF                         0.0355   0.6811
 Ivac, M/SEC               18742.9   1952.8
 Isp, M/SEC                   55.7   1070.1


 MOLE FRACTIONS

 *CO              0.46179  0.46178  0.45874
 *CO2             0.08668  0.08670  0.09163
 *H               0.00911  0.00910  0.00452
 *H2              0.19369  0.19370  0.20014
 H2O              0.24532  0.24532  0.24374
 *O               0.00009  0.00009  0.00002
 *OH              0.00326  0.00326  0.00121
 *O2              0.00005  0.00005  0.00001

  * THERMODYNAMIC PROPERTIES FITTED TO 20000.K

    PRODUCTS WHICH WERE CONSIDERED BUT WHOSE MOLE FRACTIONS
    WERE LESS THAN 5.000000E-06 FOR ALL ASSIGNED CONDITIONS

 *C              *CH             CH2             CH3             CH2OH          
 CH3O            CH4             CH3OH           CH3OOH          COOH           
 *C2             C2H             C2H2,acetylene  C2H2,vinylidene CH2CO,ketene   
 O(CH)2O         HO(CO)2OH       C2H3,vinyl      CH3CO,acetyl    C2H4           
 C2H4O,ethylen-o CH3CHO,ethanal  CH3COOH         OHCH2COOH       C2H5           
 C2H6            C2H5OH          CH3OCH3         CH3O2CH3        C2O            
 *C3             C3H3,1-propynl  C3H3,2-propynl  C3H4,allene     C3H4,propyne   
 C3H4,cyclo-     C3H5,allyl      C3H6,propylene  C3H6,cyclo-     C3H6O,propylox 
 C3H6O,acetone   C3H6O,propanal  C3H7,n-propyl   C3H7,i-propyl   C3H8           
 C3H8O,1propanol C3H8O,2propanol C3O2            *C4             C4H2,butadiyne 
 C4H4,1,3-cyclo- C4H6,butadiene  C4H6,1butyne    C4H6,2butyne    C4H6,cyclo-    
 C4H8,1-butene   C4H8,cis2-buten C4H8,tr2-butene C4H8,isobutene  C4H8,cyclo-    
 (CH3COOH)2      C4H9,n-butyl    C4H9,i-butyl    C4H9,s-butyl    C4H9,t-butyl   
 C4H10,n-butane  C4H10,isobutane *C5             C5H6,1,3cyclo-  C5H8,cyclo-    
 C5H10,1-pentene C5H10,cyclo-    C5H11,pentyl    C5H11,t-pentyl  C5H12,n-pentane
 C5H12,i-pentane CH3C(CH3)2CH3   C6H2            C6H5,phenyl     C6H5O,phenoxy  
 C6H6            C6H5OH,phenol   C6H10,cyclo-    C6H12,1-hexene  C6H12,cyclo-   
 C6H13,n-hexyl   C6H14,n-hexane  C7H7,benzyl     C7H8            C7H8O,cresol-mx
 C7H14,1-heptene C7H15,n-heptyl  C7H16,n-heptane C7H16,2-methylh C8H8,styrene   
 C8H10,ethylbenz C8H16,1-octene  C8H17,n-octyl   C8H18,n-octane  C8H18,isooctane
 C9H19,n-nonyl   C10H8,naphthale C10H21,n-decyl  C12H9,o-bipheny C12H10,biphenyl
 HCO             HCCO            HO2             HCHO,formaldehy HCOOH          
 H2O2            (HCOOH)2        O3              C(gr)           H2O(cr)        
 H2O(L)         

 NOTE. WEIGHT FRACTION OF FUEL IN TOTAL FUELS AND OF OXIDANT IN TOTAL OXIDANTS






 WARNING!!  ASSIGNED pip =   0.00000 IS NOT PERMITTED
 TO BE LESS THAN  Pinj/Pc =  1.00298. POINT OMITTED (ROCKET)





              THEORETICAL ROCKET PERFORMANCE ASSUMING EQUILIBRIUM

            COMPOSITION DURING EXPANSION FROM FINITE AREA COMBUSTOR

 Pin =   118.4 PSIA
 Ac/At = 11.9101      Pinj/Pinf =  1.001488
 CASE =                

             REACTANT                    WT FRACTION      ENERGY      TEMP
                                          (SEE NOTE)     KJ/KG-MOL      K  
 OXIDANT     O2                           0.9769339      5604.800    484.500
 OXIDANT     H2O                          0.0138396   -235445.986    484.500
 OXIDANT     CO2                          0.0092264   -385891.168    484.500
 FUEL        PMMA                         1.0000000   -442140.000    293.150

 O/F=    0.97738  %FUEL= 50.571907  R,EQ.RATIO= 1.744663  PHI,EQ.RATIO= 2.008411

                 INJECTOR  COMB END  THROAT
 Pinj/P            1.0000   1.0030   1.7828
 P, BAR            8.1600   8.1357   4.5772
 T, K             2710.22  2709.54  2465.51
 RHO, KG/CU M    7.8317-1 7.8104-1 4.8457-1
 H, KJ/KG        -2278.21 -2279.76 -2850.81
 U, KJ/KG        -3320.13 -3321.42 -3795.40
 G, KJ/KG        -34388.8 -34383.9 -32063.5
 S, KJ/(KG)(K)    11.8480  11.8485  11.8485

 M, (1/n)          21.627   21.628   21.702
 (dLV/dLP)t      -1.00322 -1.00321 -1.00145
 (dLV/dLT)p        1.0698   1.0697   1.0341
 Cp, KJ/(KG)(K)    2.6173   2.6167   2.3191
 GAMMAs            1.1975   1.1975   1.2124
 SON VEL,M/SEC     1117.0   1116.9   1070.1
 MACH NUMBER        0.000    0.050    1.000

 PERFORMANCE PARAMETERS

 Ae/At                      11.911   1.0000
 CSTAR, M/SEC               1571.2   1571.2
 CF                         0.0355   0.6811
 Ivac, M/SEC               18742.9   1952.8
 Isp, M/SEC                   55.7   1070.1


 MOLE FRACTIONS

 *CO              0.46179  0.46178  0.45874
 *CO2             0.08668  0.08670  0.09163
 *H               0.00911  0.00910  0.00452
 *H2              0.19369  0.19370  0.20014
 H2O              0.24532  0.24532  0.24374
 *O               0.00009  0.00009  0.00002
 *OH              0.00326  0.00326  0.00121
 *O2              0.00005  0.00005  0.00001

  * THERMODYNAMIC PROPERTIES FITTED TO 20000.K

    PRODUCTS WHICH WERE CONSIDERED BUT WHOSE MOLE FRACTIONS
    WERE LESS THAN 5.000000E-06 FOR ALL ASSIGNED CONDITIONS

 *C              *CH             CH2             CH3             CH2OH          
 CH3O            CH4             CH3OH           CH3OOH          COOH           
 *C2             C2H             C2H2,acetylene  C2H2,vinylidene CH2CO,ketene   
 O(CH)2O         HO(CO)2OH       C2H3,vinyl      CH3CO,acetyl    C2H4           
 C2H4O,ethylen-o CH3CHO,ethanal  CH3COOH         OHCH2COOH       C2H5           
 C2H6            C2H5OH          CH3OCH3         CH3O2CH3        C2O            
 *C3             C3H3,1-propynl  C3H3,2-propynl  C3H4,allene     C3H4,propyne   
 C3H4,cyclo-     C3H5,allyl      C3H6,propylene  C3H6,cyclo-     C3H6O,propylox 
 C3H6O,acetone   C3H6O,propanal  C3H7,n-propyl   C3H7,i-propyl   C3H8           
 C3H8O,1propanol C3H8O,2propanol C3O2            *C4             C4H2,butadiyne 
 C4H4,1,3-cyclo- C4H6,butadiene  C4H6,1butyne    C4H6,2butyne    C4H6,cyclo-    
 C4H8,1-butene   C4H8,cis2-buten C4H8,tr2-butene C4H8,isobutene  C4H8,cyclo-    
 (CH3COOH)2      C4H9,n-butyl    C4H9,i-butyl    C4H9,s-butyl    C4H9,t-butyl   
 C4H10,n-butane  C4H10,isobutane *C5             C5H6,1,3cyclo-  C5H8,cyclo-    
 C5H10,1-pentene C5H10,cyclo-    C5H11,pentyl    C5H11,t-pentyl  C5H12,n-pentane
 C5H12,i-pentane CH3C(CH3)2CH3   C6H2            C6H5,phenyl     C6H5O,phenoxy  
 C6H6            C6H5OH,phenol   C6H10,cyclo-    C6H12,1-hexene  C6H12,cyclo-   
 C6H13,n-hexyl   C6H14,n-hexane  C7H7,benzyl     C7H8            C7H8O,cresol-mx
 C7H14,1-heptene C7H15,n-heptyl  C7H16,n-heptane C7H16,2-methylh C8H8,styrene   
 C8H10,ethylbenz C8H16,1-octene  C8H17,n-octyl   C8H18,n-octane  C8H18,isooctane
 C9H19,n-nonyl   C10H8,naphthale C10H21,n-decyl  C12H9,o-bipheny C12H10,biphenyl
 HCO             HCCO            HO2             HCHO,formaldehy HCOOH          
 H2O2            (HCOOH)2        O3              C(gr)           H2O(cr)        
 H2O(L)         

 NOTE. WEIGHT FRACTION OF FUEL IN TOTAL FUELS AND OF OXIDANT IN TOTAL OXIDANTS






 WARNING!!  ASSIGNED pip =   0.00000 IS NOT PERMITTED
 TO BE LESS THAN  Pinj/Pc =  1.00298. POINT OMITTED (ROCKET)





              THEORETICAL ROCKET PERFORMANCE ASSUMING EQUILIBRIUM

            COMPOSITION DURING EXPANSION FROM FINITE AREA COMBUSTOR

 Pin =   118.4 PSIA
 Ac/At = 11.9101      Pinj/Pinf =  1.001488
 CASE =                

             REACTANT                    WT FRACTION      ENERGY      TEMP
                                          (SEE NOTE)     KJ/KG-MOL      K  
 OXIDANT     O2                           0.9769339      5604.800    484.500
 OXIDANT     H2O                          0.0138396   -235445.986    484.500
 OXIDANT     CO2                          0.0092264   -385891.168    484.500
 FUEL        PMMA                         1.0000000   -442140.000    293.150

 O/F=    0.97738  %FUEL= 50.571907  R,EQ.RATIO= 1.744663  PHI,EQ.RATIO= 2.008411

                 INJECTOR  COMB END  THROAT
 Pinj/P            1.0000   1.0030   1.7828
 P, BAR            8.1600   8.1357   4.5772
 T, K             2710.22  2709.54  2465.51
 RHO, KG/CU M    7.8317-1 7.8104-1 4.8457-1
 H, KJ/KG        -2278.21 -2279.76 -2850.81
 U, KJ/KG        -3320.13 -3321.42 -3795.40
 G, KJ/KG        -34388.8 -34383.9 -32063.5
 S, KJ/(KG)(K)    11.8480  11.8485  11.8485

 M, (1/n)          21.627   21.628   21.702
 (dLV/dLP)t      -1.00322 -1.00321 -1.00145
 (dLV/dLT)p        1.0698   1.0697   1.0341
 Cp, KJ/(KG)(K)    2.6173   2.6167   2.3191
 GAMMAs            1.1975   1.1975   1.2124
 SON VEL,M/SEC     1117.0   1116.9   1070.1
 MACH NUMBER        0.000    0.050    1.000

 PERFORMANCE PARAMETERS

 Ae/At                      11.911   1.0000
 CSTAR, M/SEC               1571.2   1571.2
 CF                         0.0355   0.6811
 Ivac, M/SEC               18742.9   1952.8
 Isp, M/SEC                   55.7   1070.1


 MOLE FRACTIONS

 *CO              0.46179  0.46178  0.45874
 *CO2             0.08668  0.08670  0.09163
 *H               0.00911  0.00910  0.00452
 *H2              0.19369  0.19370  0.20014
 H2O              0.24532  0.24532  0.24374
 *O               0.00009  0.00009  0.00002
 *OH              0.00326  0.00326  0.00121
 *O2              0.00005  0.00005  0.00001

  * THERMODYNAMIC PROPERTIES FITTED TO 20000.K

    PRODUCTS WHICH WERE CONSIDERED BUT WHOSE MOLE FRACTIONS
    WERE LESS THAN 5.000000E-06 FOR ALL ASSIGNED CONDITIONS

 *C              *CH             CH2             CH3             CH2OH          
 CH3O            CH4             CH3OH           CH3OOH          COOH           
 *C2             C2H             C2H2,acetylene  C2H2,vinylidene CH2CO,ketene   
 O(CH)2O         HO(CO)2OH       C2H3,vinyl      CH3CO,acetyl    C2H4           
 C2H4O,ethylen-o CH3CHO,ethanal  CH3COOH         OHCH2COOH       C2H5           
 C2H6            C2H5OH          CH3OCH3         CH3O2CH3        C2O            
 *C3             C3H3,1-propynl  C3H3,2-propynl  C3H4,allene     C3H4,propyne   
 C3H4,cyclo-     C3H5,allyl      C3H6,propylene  C3H6,cyclo-     C3H6O,propylox 
 C3H6O,acetone   C3H6O,propanal  C3H7,n-propyl   C3H7,i-propyl   C3H8           
 C3H8O,1propanol C3H8O,2propanol C3O2            *C4             C4H2,butadiyne 
 C4H4,1,3-cyclo- C4H6,butadiene  C4H6,1butyne    C4H6,2butyne    C4H6,cyclo-    
 C4H8,1-butene   C4H8,cis2-buten C4H8,tr2-butene C4H8,isobutene  C4H8,cyclo-    
 (CH3COOH)2      C4H9,n-butyl    C4H9,i-butyl    C4H9,s-butyl    C4H9,t-butyl   
 C4H10,n-butane  C4H10,isobutane *C5             C5H6,1,3cyclo-  C5H8,cyclo-    
 C5H10,1-pentene C5H10,cyclo-    C5H11,pentyl    C5H11,t-pentyl  C5H12,n-pentane
 C5H12,i-pentane CH3C(CH3)2CH3   C6H2            C6H5,phenyl     C6H5O,phenoxy  
 C6H6            C6H5OH,phenol   C6H10,cyclo-    C6H12,1-hexene  C6H12,cyclo-   
 C6H13,n-hexyl   C6H14,n-hexane  C7H7,benzyl     C7H8            C7H8O,cresol-mx
 C7H14,1-heptene C7H15,n-heptyl  C7H16,n-heptane C7H16,2-methylh C8H8,styrene   
 C8H10,ethylbenz C8H16,1-octene  C8H17,n-octyl   C8H18,n-octane  C8H18,isooctane
 C9H19,n-nonyl   C10H8,naphthale C10H21,n-decyl  C12H9,o-bipheny C12H10,biphenyl
 HCO             HCCO            HO2             HCHO,formaldehy HCOOH          
 H2O2            (HCOOH)2        O3              C(gr)           H2O(cr)        
 H2O(L)         

 NOTE. WEIGHT FRACTION OF FUEL IN TOTAL FUELS AND OF OXIDANT IN TOTAL OXIDANTS






 WARNING!!  ASSIGNED pip =   0.00000 IS NOT PERMITTED
 TO BE LESS THAN  Pinj/Pc =  1.00298. POINT OMITTED (ROCKET)





              THEORETICAL ROCKET PERFORMANCE ASSUMING EQUILIBRIUM

            COMPOSITION DURING EXPANSION FROM FINITE AREA COMBUSTOR

 Pin =   118.4 PSIA
 Ac/At = 11.9101      Pinj/Pinf =  1.001488
 CASE =                

             REACTANT                    WT FRACTION      ENERGY      TEMP
                                          (SEE NOTE)     KJ/KG-MOL      K  
 OXIDANT     O2                           0.9769339      5604.800    484.500
 OXIDANT     H2O                          0.0138396   -235445.986    484.500
 OXIDANT     CO2                          0.0092264   -385891.168    484.500
 FUEL        PMMA                         1.0000000   -442140.000    293.150

 O/F=    0.97738  %FUEL= 50.571907  R,EQ.RATIO= 1.744663  PHI,EQ.RATIO= 2.008411

                 INJECTOR  COMB END  THROAT
 Pinj/P            1.0000   1.0030   1.7828
 P, BAR            8.1600   8.1357   4.5772
 T, K             2710.22  2709.54  2465.51
 RHO, KG/CU M    7.8317-1 7.8104-1 4.8457-1
 H, KJ/KG        -2278.21 -2279.76 -2850.81
 U, KJ/KG        -3320.13 -3321.42 -3795.40
 G, KJ/KG        -34388.8 -34383.9 -32063.5
 S, KJ/(KG)(K)    11.8480  11.8485  11.8485

 M, (1/n)          21.627   21.628   21.702
 (dLV/dLP)t      -1.00322 -1.00321 -1.00145
 (dLV/dLT)p        1.0698   1.0697   1.0341
 Cp, KJ/(KG)(K)    2.6173   2.6167   2.3191
 GAMMAs            1.1975   1.1975   1.2124
 SON VEL,M/SEC     1117.0   1116.9   1070.1
 MACH NUMBER        0.000    0.050    1.000

 PERFORMANCE PARAMETERS

 Ae/At                      11.911   1.0000
 CSTAR, M/SEC               1571.2   1571.2
 CF                         0.0355   0.6811
 Ivac, M/SEC               18742.9   1952.8
 Isp, M/SEC                   55.7   1070.1


 MOLE FRACTIONS

 *CO              0.46179  0.46178  0.45874
 *CO2             0.08668  0.08670  0.09163
 *H               0.00911  0.00910  0.00452
 *H2              0.19369  0.19370  0.20014
 H2O              0.24532  0.24532  0.24374
 *O               0.00009  0.00009  0.00002
 *OH              0.00326  0.00326  0.00121
 *O2              0.00005  0.00005  0.00001

  * THERMODYNAMIC PROPERTIES FITTED TO 20000.K

    PRODUCTS WHICH WERE CONSIDERED BUT WHOSE MOLE FRACTIONS
    WERE LESS THAN 5.000000E-06 FOR ALL ASSIGNED CONDITIONS

 *C              *CH             CH2             CH3             CH2OH          
 CH3O            CH4             CH3OH           CH3OOH          COOH           
 *C2             C2H             C2H2,acetylene  C2H2,vinylidene CH2CO,ketene   
 O(CH)2O         HO(CO)2OH       C2H3,vinyl      CH3CO,acetyl    C2H4           
 C2H4O,ethylen-o CH3CHO,ethanal  CH3COOH         OHCH2COOH       C2H5           
 C2H6            C2H5OH          CH3OCH3         CH3O2CH3        C2O            
 *C3             C3H3,1-propynl  C3H3,2-propynl  C3H4,allene     C3H4,propyne   
 C3H4,cyclo-     C3H5,allyl      C3H6,propylene  C3H6,cyclo-     C3H6O,propylox 
 C3H6O,acetone   C3H6O,propanal  C3H7,n-propyl   C3H7,i-propyl   C3H8           
 C3H8O,1propanol C3H8O,2propanol C3O2            *C4             C4H2,butadiyne 
 C4H4,1,3-cyclo- C4H6,butadiene  C4H6,1butyne    C4H6,2butyne    C4H6,cyclo-    
 C4H8,1-butene   C4H8,cis2-buten C4H8,tr2-butene C4H8,isobutene  C4H8,cyclo-    
 (CH3COOH)2      C4H9,n-butyl    C4H9,i-butyl    C4H9,s-butyl    C4H9,t-butyl   
 C4H10,n-butane  C4H10,isobutane *C5             C5H6,1,3cyclo-  C5H8,cyclo-    
 C5H10,1-pentene C5H10,cyclo-    C5H11,pentyl    C5H11,t-pentyl  C5H12,n-pentane
 C5H12,i-pentane CH3C(CH3)2CH3   C6H2            C6H5,phenyl     C6H5O,phenoxy  
 C6H6            C6H5OH,phenol   C6H10,cyclo-    C6H12,1-hexene  C6H12,cyclo-   
 C6H13,n-hexyl   C6H14,n-hexane  C7H7,benzyl     C7H8            C7H8O,cresol-mx
 C7H14,1-heptene C7H15,n-heptyl  C7H16,n-heptane C7H16,2-methylh C8H8,styrene   
 C8H10,ethylbenz C8H16,1-octene  C8H17,n-octyl   C8H18,n-octane  C8H18,isooctane
 C9H19,n-nonyl   C10H8,naphthale C10H21,n-decyl  C12H9,o-bipheny C12H10,biphenyl
 HCO             HCCO            HO2             HCHO,formaldehy HCOOH          
 H2O2            (HCOOH)2        O3              C(gr)           H2O(cr)        
 H2O(L)         

 NOTE. WEIGHT FRACTION OF FUEL IN TOTAL FUELS AND OF OXIDANT IN TOTAL OXIDANTS






 WARNING!!  ASSIGNED pip =   0.00000 IS NOT PERMITTED
 TO BE LESS THAN  Pinj/Pc =  1.00298. POINT OMITTED (ROCKET)





              THEORETICAL ROCKET PERFORMANCE ASSUMING EQUILIBRIUM

            COMPOSITION DURING EXPANSION FROM FINITE AREA COMBUSTOR

 Pin =   118.4 PSIA
 Ac/At = 11.9101      Pinj/Pinf =  1.001488
 CASE =                

             REACTANT                    WT FRACTION      ENERGY      TEMP
                                          (SEE NOTE)     KJ/KG-MOL      K  
 OXIDANT     O2                           0.9769339      5604.800    484.500
 OXIDANT     H2O                          0.0138396   -235445.986    484.500
 OXIDANT     CO2                          0.0092264   -385891.168    484.500
 FUEL        PMMA                         1.0000000   -442140.000    293.150

 O/F=    0.97738  %FUEL= 50.571907  R,EQ.RATIO= 1.744663  PHI,EQ.RATIO= 2.008411

                 INJECTOR  COMB END  THROAT
 Pinj/P            1.0000   1.0030   1.7828
 P, BAR            8.1600   8.1357   4.5772
 T, K             2710.22  2709.54  2465.51
 RHO, KG/CU M    7.8317-1 7.8104-1 4.8457-1
 H, KJ/KG        -2278.21 -2279.76 -2850.81
 U, KJ/KG        -3320.13 -3321.42 -3795.40
 G, KJ/KG        -34388.8 -34383.9 -32063.5
 S, KJ/(KG)(K)    11.8480  11.8485  11.8485

 M, (1/n)          21.627   21.628   21.702
 (dLV/dLP)t      -1.00322 -1.00321 -1.00145
 (dLV/dLT)p        1.0698   1.0697   1.0341
 Cp, KJ/(KG)(K)    2.6173   2.6167   2.3191
 GAMMAs            1.1975   1.1975   1.2124
 SON VEL,M/SEC     1117.0   1116.9   1070.1
 MACH NUMBER        0.000    0.050    1.000

 PERFORMANCE PARAMETERS

 Ae/At                      11.911   1.0000
 CSTAR, M/SEC               1571.2   1571.2
 CF                         0.0355   0.6811
 Ivac, M/SEC               18742.9   1952.8
 Isp, M/SEC                   55.7   1070.1


 MOLE FRACTIONS

 *CO              0.46179  0.46178  0.45874
 *CO2             0.08668  0.08670  0.09163
 *H               0.00911  0.00910  0.00452
 *H2              0.19369  0.19370  0.20014
 H2O              0.24532  0.24532  0.24374
 *O               0.00009  0.00009  0.00002
 *OH              0.00326  0.00326  0.00121
 *O2              0.00005  0.00005  0.00001

  * THERMODYNAMIC PROPERTIES FITTED TO 20000.K

    PRODUCTS WHICH WERE CONSIDERED BUT WHOSE MOLE FRACTIONS
    WERE LESS THAN 5.000000E-06 FOR ALL ASSIGNED CONDITIONS

 *C              *CH             CH2             CH3             CH2OH          
 CH3O            CH4             CH3OH           CH3OOH          COOH           
 *C2             C2H             C2H2,acetylene  C2H2,vinylidene CH2CO,ketene   
 O(CH)2O         HO(CO)2OH       C2H3,vinyl      CH3CO,acetyl    C2H4           
 C2H4O,ethylen-o CH3CHO,ethanal  CH3COOH         OHCH2COOH       C2H5           
 C2H6            C2H5OH          CH3OCH3         CH3O2CH3        C2O            
 *C3             C3H3,1-propynl  C3H3,2-propynl  C3H4,allene     C3H4,propyne   
 C3H4,cyclo-     C3H5,allyl      C3H6,propylene  C3H6,cyclo-     C3H6O,propylox 
 C3H6O,acetone   C3H6O,propanal  C3H7,n-propyl   C3H7,i-propyl   C3H8           
 C3H8O,1propanol C3H8O,2propanol C3O2            *C4             C4H2,butadiyne 
 C4H4,1,3-cyclo- C4H6,butadiene  C4H6,1butyne    C4H6,2butyne    C4H6,cyclo-    
 C4H8,1-butene   C4H8,cis2-buten C4H8,tr2-butene C4H8,isobutene  C4H8,cyclo-    
 (CH3COOH)2      C4H9,n-butyl    C4H9,i-butyl    C4H9,s-butyl    C4H9,t-butyl   
 C4H10,n-butane  C4H10,isobutane *C5             C5H6,1,3cyclo-  C5H8,cyclo-    
 C5H10,1-pentene C5H10,cyclo-    C5H11,pentyl    C5H11,t-pentyl  C5H12,n-pentane
 C5H12,i-pentane CH3C(CH3)2CH3   C6H2            C6H5,phenyl     C6H5O,phenoxy  
 C6H6            C6H5OH,phenol   C6H10,cyclo-    C6H12,1-hexene  C6H12,cyclo-   
 C6H13,n-hexyl   C6H14,n-hexane  C7H7,benzyl     C7H8            C7H8O,cresol-mx
 C7H14,1-heptene C7H15,n-heptyl  C7H16,n-heptane C7H16,2-methylh C8H8,styrene   
 C8H10,ethylbenz C8H16,1-octene  C8H17,n-octyl   C8H18,n-octane  C8H18,isooctane
 C9H19,n-nonyl   C10H8,naphthale C10H21,n-decyl  C12H9,o-bipheny C12H10,biphenyl
 HCO             HCCO            HO2             HCHO,formaldehy HCOOH          
 H2O2            (HCOOH)2        O3              C(gr)           H2O(cr)        
 H2O(L)         

 NOTE. WEIGHT FRACTION OF FUEL IN TOTAL FUELS AND OF OXIDANT IN TOTAL OXIDANTS






 WARNING!!  ASSIGNED pip =   0.00000 IS NOT PERMITTED
 TO BE LESS THAN  Pinj/Pc =  1.00298. POINT OMITTED (ROCKET)





              THEORETICAL ROCKET PERFORMANCE ASSUMING EQUILIBRIUM

            COMPOSITION DURING EXPANSION FROM FINITE AREA COMBUSTOR

 Pin =   118.4 PSIA
 Ac/At = 11.9101      Pinj/Pinf =  1.001488
 CASE =                

             REACTANT                    WT FRACTION      ENERGY      TEMP
                                          (SEE NOTE)     KJ/KG-MOL      K  
 OXIDANT     O2                           0.9769339      5604.800    484.500
 OXIDANT     H2O                          0.0138396   -235445.986    484.500
 OXIDANT     CO2                          0.0092264   -385891.168    484.500
 FUEL        PMMA                         1.0000000   -442140.000    293.150

 O/F=    0.97738  %FUEL= 50.571907  R,EQ.RATIO= 1.744663  PHI,EQ.RATIO= 2.008411

                 INJECTOR  COMB END  THROAT
 Pinj/P            1.0000   1.0030   1.7828
 P, BAR            8.1600   8.1357   4.5772
 T, K             2710.22  2709.54  2465.51
 RHO, KG/CU M    7.8317-1 7.8104-1 4.8457-1
 H, KJ/KG        -2278.21 -2279.76 -2850.81
 U, KJ/KG        -3320.13 -3321.42 -3795.40
 G, KJ/KG        -34388.8 -34383.9 -32063.5
 S, KJ/(KG)(K)    11.8480  11.8485  11.8485

 M, (1/n)          21.627   21.628   21.702
 (dLV/dLP)t      -1.00322 -1.00321 -1.00145
 (dLV/dLT)p        1.0698   1.0697   1.0341
 Cp, KJ/(KG)(K)    2.6173   2.6167   2.3191
 GAMMAs            1.1975   1.1975   1.2124
 SON VEL,M/SEC     1117.0   1116.9   1070.1
 MACH NUMBER        0.000    0.050    1.000

 PERFORMANCE PARAMETERS

 Ae/At                      11.911   1.0000
 CSTAR, M/SEC               1571.2   1571.2
 CF                         0.0355   0.6811
 Ivac, M/SEC               18742.9   1952.8
 Isp, M/SEC                   55.7   1070.1


 MOLE FRACTIONS

 *CO              0.46179  0.46178  0.45874
 *CO2             0.08668  0.08670  0.09163
 *H               0.00911  0.00910  0.00452
 *H2              0.19369  0.19370  0.20014
 H2O              0.24532  0.24532  0.24374
 *O               0.00009  0.00009  0.00002
 *OH              0.00326  0.00326  0.00121
 *O2              0.00005  0.00005  0.00001

  * THERMODYNAMIC PROPERTIES FITTED TO 20000.K

    PRODUCTS WHICH WERE CONSIDERED BUT WHOSE MOLE FRACTIONS
    WERE LESS THAN 5.000000E-06 FOR ALL ASSIGNED CONDITIONS

 *C              *CH             CH2             CH3             CH2OH          
 CH3O            CH4             CH3OH           CH3OOH          COOH           
 *C2             C2H             C2H2,acetylene  C2H2,vinylidene CH2CO,ketene   
 O(CH)2O         HO(CO)2OH       C2H3,vinyl      CH3CO,acetyl    C2H4           
 C2H4O,ethylen-o CH3CHO,ethanal  CH3COOH         OHCH2COOH       C2H5           
 C2H6            C2H5OH          CH3OCH3         CH3O2CH3        C2O            
 *C3             C3H3,1-propynl  C3H3,2-propynl  C3H4,allene     C3H4,propyne   
 C3H4,cyclo-     C3H5,allyl      C3H6,propylene  C3H6,cyclo-     C3H6O,propylox 
 C3H6O,acetone   C3H6O,propanal  C3H7,n-propyl   C3H7,i-propyl   C3H8           
 C3H8O,1propanol C3H8O,2propanol C3O2            *C4             C4H2,butadiyne 
 C4H4,1,3-cyclo- C4H6,butadiene  C4H6,1butyne    C4H6,2butyne    C4H6,cyclo-    
 C4H8,1-butene   C4H8,cis2-buten C4H8,tr2-butene C4H8,isobutene  C4H8,cyclo-    
 (CH3COOH)2      C4H9,n-butyl    C4H9,i-butyl    C4H9,s-butyl    C4H9,t-butyl   
 C4H10,n-butane  C4H10,isobutane *C5             C5H6,1,3cyclo-  C5H8,cyclo-    
 C5H10,1-pentene C5H10,cyclo-    C5H11,pentyl    C5H11,t-pentyl  C5H12,n-pentane
 C5H12,i-pentane CH3C(CH3)2CH3   C6H2            C6H5,phenyl     C6H5O,phenoxy  
 C6H6            C6H5OH,phenol   C6H10,cyclo-    C6H12,1-hexene  C6H12,cyclo-   
 C6H13,n-hexyl   C6H14,n-hexane  C7H7,benzyl     C7H8            C7H8O,cresol-mx
 C7H14,1-heptene C7H15,n-heptyl  C7H16,n-heptane C7H16,2-methylh C8H8,styrene   
 C8H10,ethylbenz C8H16,1-octene  C8H17,n-octyl   C8H18,n-octane  C8H18,isooctane
 C9H19,n-nonyl   C10H8,naphthale C10H21,n-decyl  C12H9,o-bipheny C12H10,biphenyl
 HCO             HCCO            HO2             HCHO,formaldehy HCOOH          
 H2O2            (HCOOH)2        O3              C(gr)           H2O(cr)        
 H2O(L)         

 NOTE. WEIGHT FRACTION OF FUEL IN TOTAL FUELS AND OF OXIDANT IN TOTAL OXIDANTS






 WARNING!!  ASSIGNED pip =   0.00000 IS NOT PERMITTED
 TO BE LESS THAN  Pinj/Pc =  1.00298. POINT OMITTED (ROCKET)





              THEORETICAL ROCKET PERFORMANCE ASSUMING EQUILIBRIUM

            COMPOSITION DURING EXPANSION FROM FINITE AREA COMBUSTOR

 Pin =   118.4 PSIA
 Ac/At = 11.9101      Pinj/Pinf =  1.001488
 CASE =                

             REACTANT                    WT FRACTION      ENERGY      TEMP
                                          (SEE NOTE)     KJ/KG-MOL      K  
 OXIDANT     O2                           0.9769339      5604.800    484.500
 OXIDANT     H2O                          0.0138396   -235445.986    484.500
 OXIDANT     CO2                          0.0092264   -385891.168    484.500
 FUEL        PMMA                         1.0000000   -442140.000    293.150

 O/F=    0.97738  %FUEL= 50.571907  R,EQ.RATIO= 1.744663  PHI,EQ.RATIO= 2.008411

                 INJECTOR  COMB END  THROAT
 Pinj/P            1.0000   1.0030   1.7828
 P, BAR            8.1600   8.1357   4.5772
 T, K             2710.22  2709.54  2465.51
 RHO, KG/CU M    7.8317-1 7.8104-1 4.8457-1
 H, KJ/KG        -2278.21 -2279.76 -2850.81
 U, KJ/KG        -3320.13 -3321.42 -3795.40
 G, KJ/KG        -34388.8 -34383.9 -32063.5
 S, KJ/(KG)(K)    11.8480  11.8485  11.8485

 M, (1/n)          21.627   21.628   21.702
 (dLV/dLP)t      -1.00322 -1.00321 -1.00145
 (dLV/dLT)p        1.0698   1.0697   1.0341
 Cp, KJ/(KG)(K)    2.6173   2.6167   2.3191
 GAMMAs            1.1975   1.1975   1.2124
 SON VEL,M/SEC     1117.0   1116.9   1070.1
 MACH NUMBER        0.000    0.050    1.000

 PERFORMANCE PARAMETERS

 Ae/At                      11.911   1.0000
 CSTAR, M/SEC               1571.2   1571.2
 CF                         0.0355   0.6811
 Ivac, M/SEC               18742.9   1952.8
 Isp, M/SEC                   55.7   1070.1


 MOLE FRACTIONS

 *CO              0.46179  0.46178  0.45874
 *CO2             0.08668  0.08670  0.09163
 *H               0.00911  0.00910  0.00452
 *H2              0.19369  0.19370  0.20014
 H2O              0.24532  0.24532  0.24374
 *O               0.00009  0.00009  0.00002
 *OH              0.00326  0.00326  0.00121
 *O2              0.00005  0.00005  0.00001

  * THERMODYNAMIC PROPERTIES FITTED TO 20000.K

    PRODUCTS WHICH WERE CONSIDERED BUT WHOSE MOLE FRACTIONS
    WERE LESS THAN 5.000000E-06 FOR ALL ASSIGNED CONDITIONS

 *C              *CH             CH2             CH3             CH2OH          
 CH3O            CH4             CH3OH           CH3OOH          COOH           
 *C2             C2H             C2H2,acetylene  C2H2,vinylidene CH2CO,ketene   
 O(CH)2O         HO(CO)2OH       C2H3,vinyl      CH3CO,acetyl    C2H4           
 C2H4O,ethylen-o CH3CHO,ethanal  CH3COOH         OHCH2COOH       C2H5           
 C2H6            C2H5OH          CH3OCH3         CH3O2CH3        C2O            
 *C3             C3H3,1-propynl  C3H3,2-propynl  C3H4,allene     C3H4,propyne   
 C3H4,cyclo-     C3H5,allyl      C3H6,propylene  C3H6,cyclo-     C3H6O,propylox 
 C3H6O,acetone   C3H6O,propanal  C3H7,n-propyl   C3H7,i-propyl   C3H8           
 C3H8O,1propanol C3H8O,2propanol C3O2            *C4             C4H2,butadiyne 
 C4H4,1,3-cyclo- C4H6,butadiene  C4H6,1butyne    C4H6,2butyne    C4H6,cyclo-    
 C4H8,1-butene   C4H8,cis2-buten C4H8,tr2-butene C4H8,isobutene  C4H8,cyclo-    
 (CH3COOH)2      C4H9,n-butyl    C4H9,i-butyl    C4H9,s-butyl    C4H9,t-butyl   
 C4H10,n-butane  C4H10,isobutane *C5             C5H6,1,3cyclo-  C5H8,cyclo-    
 C5H10,1-pentene C5H10,cyclo-    C5H11,pentyl    C5H11,t-pentyl  C5H12,n-pentane
 C5H12,i-pentane CH3C(CH3)2CH3   C6H2            C6H5,phenyl     C6H5O,phenoxy  
 C6H6            C6H5OH,phenol   C6H10,cyclo-    C6H12,1-hexene  C6H12,cyclo-   
 C6H13,n-hexyl   C6H14,n-hexane  C7H7,benzyl     C7H8            C7H8O,cresol-mx
 C7H14,1-heptene C7H15,n-heptyl  C7H16,n-heptane C7H16,2-methylh C8H8,styrene   
 C8H10,ethylbenz C8H16,1-octene  C8H17,n-octyl   C8H18,n-octane  C8H18,isooctane
 C9H19,n-nonyl   C10H8,naphthale C10H21,n-decyl  C12H9,o-bipheny C12H10,biphenyl
 HCO             HCCO            HO2             HCHO,formaldehy HCOOH          
 H2O2            (HCOOH)2        O3              C(gr)           H2O(cr)        
 H2O(L)         

 NOTE. WEIGHT FRACTION OF FUEL IN TOTAL FUELS AND OF OXIDANT IN TOTAL OXIDANTS






 WARNING!!  ASSIGNED pip =   0.00000 IS NOT PERMITTED
 TO BE LESS THAN  Pinj/Pc =  1.00298. POINT OMITTED (ROCKET)





              THEORETICAL ROCKET PERFORMANCE ASSUMING EQUILIBRIUM

            COMPOSITION DURING EXPANSION FROM FINITE AREA COMBUSTOR

 Pin =   118.4 PSIA
 Ac/At = 11.9101      Pinj/Pinf =  1.001488
 CASE =                

             REACTANT                    WT FRACTION      ENERGY      TEMP
                                          (SEE NOTE)     KJ/KG-MOL      K  
 OXIDANT     O2                           0.9769339      5604.800    484.500
 OXIDANT     H2O                          0.0138396   -235445.986    484.500
 OXIDANT     CO2                          0.0092264   -385891.168    484.500
 FUEL        PMMA                         1.0000000   -442140.000    293.150

 O/F=    0.97738  %FUEL= 50.571907  R,EQ.RATIO= 1.744663  PHI,EQ.RATIO= 2.008411

                 INJECTOR  COMB END  THROAT
 Pinj/P            1.0000   1.0030   1.7828
 P, BAR            8.1600   8.1357   4.5772
 T, K             2710.22  2709.54  2465.51
 RHO, KG/CU M    7.8317-1 7.8104-1 4.8457-1
 H, KJ/KG        -2278.21 -2279.76 -2850.81
 U, KJ/KG        -3320.13 -3321.42 -3795.40
 G, KJ/KG        -34388.8 -34383.9 -32063.5
 S, KJ/(KG)(K)    11.8480  11.8485  11.8485

 M, (1/n)          21.627   21.628   21.702
 (dLV/dLP)t      -1.00322 -1.00321 -1.00145
 (dLV/dLT)p        1.0698   1.0697   1.0341
 Cp, KJ/(KG)(K)    2.6173   2.6167   2.3191
 GAMMAs            1.1975   1.1975   1.2124
 SON VEL,M/SEC     1117.0   1116.9   1070.1
 MACH NUMBER        0.000    0.050    1.000

 PERFORMANCE PARAMETERS

 Ae/At                      11.911   1.0000
 CSTAR, M/SEC               1571.2   1571.2
 CF                         0.0355   0.6811
 Ivac, M/SEC               18742.9   1952.8
 Isp, M/SEC                   55.7   1070.1


 MOLE FRACTIONS

 *CO              0.46179  0.46178  0.45874
 *CO2             0.08668  0.08670  0.09163
 *H               0.00911  0.00910  0.00452
 *H2              0.19369  0.19370  0.20014
 H2O              0.24532  0.24532  0.24374
 *O               0.00009  0.00009  0.00002
 *OH              0.00326  0.00326  0.00121
 *O2              0.00005  0.00005  0.00001

  * THERMODYNAMIC PROPERTIES FITTED TO 20000.K

    PRODUCTS WHICH WERE CONSIDERED BUT WHOSE MOLE FRACTIONS
    WERE LESS THAN 5.000000E-06 FOR ALL ASSIGNED CONDITIONS

 *C              *CH             CH2             CH3             CH2OH          
 CH3O            CH4             CH3OH           CH3OOH          COOH           
 *C2             C2H             C2H2,acetylene  C2H2,vinylidene CH2CO,ketene   
 O(CH)2O         HO(CO)2OH       C2H3,vinyl      CH3CO,acetyl    C2H4           
 C2H4O,ethylen-o CH3CHO,ethanal  CH3COOH         OHCH2COOH       C2H5           
 C2H6            C2H5OH          CH3OCH3         CH3O2CH3        C2O            
 *C3             C3H3,1-propynl  C3H3,2-propynl  C3H4,allene     C3H4,propyne   
 C3H4,cyclo-     C3H5,allyl      C3H6,propylene  C3H6,cyclo-     C3H6O,propylox 
 C3H6O,acetone   C3H6O,propanal  C3H7,n-propyl   C3H7,i-propyl   C3H8           
 C3H8O,1propanol C3H8O,2propanol C3O2            *C4             C4H2,butadiyne 
 C4H4,1,3-cyclo- C4H6,butadiene  C4H6,1butyne    C4H6,2butyne    C4H6,cyclo-    
 C4H8,1-butene   C4H8,cis2-buten C4H8,tr2-butene C4H8,isobutene  C4H8,cyclo-    
 (CH3COOH)2      C4H9,n-butyl    C4H9,i-butyl    C4H9,s-butyl    C4H9,t-butyl   
 C4H10,n-butane  C4H10,isobutane *C5             C5H6,1,3cyclo-  C5H8,cyclo-    
 C5H10,1-pentene C5H10,cyclo-    C5H11,pentyl    C5H11,t-pentyl  C5H12,n-pentane
 C5H12,i-pentane CH3C(CH3)2CH3   C6H2            C6H5,phenyl     C6H5O,phenoxy  
 C6H6            C6H5OH,phenol   C6H10,cyclo-    C6H12,1-hexene  C6H12,cyclo-   
 C6H13,n-hexyl   C6H14,n-hexane  C7H7,benzyl     C7H8            C7H8O,cresol-mx
 C7H14,1-heptene C7H15,n-heptyl  C7H16,n-heptane C7H16,2-methylh C8H8,styrene   
 C8H10,ethylbenz C8H16,1-octene  C8H17,n-octyl   C8H18,n-octane  C8H18,isooctane
 C9H19,n-nonyl   C10H8,naphthale C10H21,n-decyl  C12H9,o-bipheny C12H10,biphenyl
 HCO             HCCO            HO2             HCHO,formaldehy HCOOH          
 H2O2            (HCOOH)2        O3              C(gr)           H2O(cr)        
 H2O(L)         

 NOTE. WEIGHT FRACTION OF FUEL IN TOTAL FUELS AND OF OXIDANT IN TOTAL OXIDANTS






 WARNING!!  ASSIGNED pip =   0.00000 IS NOT PERMITTED
 TO BE LESS THAN  Pinj/Pc =  1.00298. POINT OMITTED (ROCKET)





              THEORETICAL ROCKET PERFORMANCE ASSUMING EQUILIBRIUM

            COMPOSITION DURING EXPANSION FROM FINITE AREA COMBUSTOR

 Pin =   118.4 PSIA
 Ac/At = 11.9101      Pinj/Pinf =  1.001488
 CASE =                

             REACTANT                    WT FRACTION      ENERGY      TEMP
                                          (SEE NOTE)     KJ/KG-MOL      K  
 OXIDANT     O2                           0.9769339      5604.800    484.500
 OXIDANT     H2O                          0.0138396   -235445.986    484.500
 OXIDANT     CO2                          0.0092264   -385891.168    484.500
 FUEL        PMMA                         1.0000000   -442140.000    293.150

 O/F=    0.97738  %FUEL= 50.571907  R,EQ.RATIO= 1.744663  PHI,EQ.RATIO= 2.008411

                 INJECTOR  COMB END  THROAT
 Pinj/P            1.0000   1.0030   1.7828
 P, BAR            8.1600   8.1357   4.5772
 T, K             2710.22  2709.54  2465.51
 RHO, KG/CU M    7.8317-1 7.8104-1 4.8457-1
 H, KJ/KG        -2278.21 -2279.76 -2850.81
 U, KJ/KG        -3320.13 -3321.42 -3795.40
 G, KJ/KG        -34388.8 -34383.9 -32063.5
 S, KJ/(KG)(K)    11.8480  11.8485  11.8485

 M, (1/n)          21.627   21.628   21.702
 (dLV/dLP)t      -1.00322 -1.00321 -1.00145
 (dLV/dLT)p        1.0698   1.0697   1.0341
 Cp, KJ/(KG)(K)    2.6173   2.6167   2.3191
 GAMMAs            1.1975   1.1975   1.2124
 SON VEL,M/SEC     1117.0   1116.9   1070.1
 MACH NUMBER        0.000    0.050    1.000

 PERFORMANCE PARAMETERS

 Ae/At                      11.911   1.0000
 CSTAR, M/SEC               1571.2   1571.2
 CF                         0.0355   0.6811
 Ivac, M/SEC               18742.9   1952.8
 Isp, M/SEC                   55.7   1070.1


 MOLE FRACTIONS

 *CO              0.46179  0.46178  0.45874
 *CO2             0.08668  0.08670  0.09163
 *H               0.00911  0.00910  0.00452
 *H2              0.19369  0.19370  0.20014
 H2O              0.24532  0.24532  0.24374
 *O               0.00009  0.00009  0.00002
 *OH              0.00326  0.00326  0.00121
 *O2              0.00005  0.00005  0.00001

  * THERMODYNAMIC PROPERTIES FITTED TO 20000.K

    PRODUCTS WHICH WERE CONSIDERED BUT WHOSE MOLE FRACTIONS
    WERE LESS THAN 5.000000E-06 FOR ALL ASSIGNED CONDITIONS

 *C              *CH             CH2             CH3             CH2OH          
 CH3O            CH4             CH3OH           CH3OOH          COOH           
 *C2             C2H             C2H2,acetylene  C2H2,vinylidene CH2CO,ketene   
 O(CH)2O         HO(CO)2OH       C2H3,vinyl      CH3CO,acetyl    C2H4           
 C2H4O,ethylen-o CH3CHO,ethanal  CH3COOH         OHCH2COOH       C2H5           
 C2H6            C2H5OH          CH3OCH3         CH3O2CH3        C2O            
 *C3             C3H3,1-propynl  C3H3,2-propynl  C3H4,allene     C3H4,propyne   
 C3H4,cyclo-     C3H5,allyl      C3H6,propylene  C3H6,cyclo-     C3H6O,propylox 
 C3H6O,acetone   C3H6O,propanal  C3H7,n-propyl   C3H7,i-propyl   C3H8           
 C3H8O,1propanol C3H8O,2propanol C3O2            *C4             C4H2,butadiyne 
 C4H4,1,3-cyclo- C4H6,butadiene  C4H6,1butyne    C4H6,2butyne    C4H6,cyclo-    
 C4H8,1-butene   C4H8,cis2-buten C4H8,tr2-butene C4H8,isobutene  C4H8,cyclo-    
 (CH3COOH)2      C4H9,n-butyl    C4H9,i-butyl    C4H9,s-butyl    C4H9,t-butyl   
 C4H10,n-butane  C4H10,isobutane *C5             C5H6,1,3cyclo-  C5H8,cyclo-    
 C5H10,1-pentene C5H10,cyclo-    C5H11,pentyl    C5H11,t-pentyl  C5H12,n-pentane
 C5H12,i-pentane CH3C(CH3)2CH3   C6H2            C6H5,phenyl     C6H5O,phenoxy  
 C6H6            C6H5OH,phenol   C6H10,cyclo-    C6H12,1-hexene  C6H12,cyclo-   
 C6H13,n-hexyl   C6H14,n-hexane  C7H7,benzyl     C7H8            C7H8O,cresol-mx
 C7H14,1-heptene C7H15,n-heptyl  C7H16,n-heptane C7H16,2-methylh C8H8,styrene   
 C8H10,ethylbenz C8H16,1-octene  C8H17,n-octyl   C8H18,n-octane  C8H18,isooctane
 C9H19,n-nonyl   C10H8,naphthale C10H21,n-decyl  C12H9,o-bipheny C12H10,biphenyl
 HCO             HCCO            HO2             HCHO,formaldehy HCOOH          
 H2O2            (HCOOH)2        O3              C(gr)           H2O(cr)        
 H2O(L)         

 NOTE. WEIGHT FRACTION OF FUEL IN TOTAL FUELS AND OF OXIDANT IN TOTAL OXIDANTS






 WARNING!!  ASSIGNED pip =   0.00000 IS NOT PERMITTED
 TO BE LESS THAN  Pinj/Pc =  1.00298. POINT OMITTED (ROCKET)





              THEORETICAL ROCKET PERFORMANCE ASSUMING EQUILIBRIUM

            COMPOSITION DURING EXPANSION FROM FINITE AREA COMBUSTOR

 Pin =   118.4 PSIA
 Ac/At = 11.9101      Pinj/Pinf =  1.001488
 CASE =                

             REACTANT                    WT FRACTION      ENERGY      TEMP
                                          (SEE NOTE)     KJ/KG-MOL      K  
 OXIDANT     O2                           0.9769339      5604.800    484.500
 OXIDANT     H2O                          0.0138396   -235445.986    484.500
 OXIDANT     CO2                          0.0092264   -385891.168    484.500
 FUEL        PMMA                         1.0000000   -442140.000    293.150

 O/F=    0.97738  %FUEL= 50.571907  R,EQ.RATIO= 1.744663  PHI,EQ.RATIO= 2.008411

                 INJECTOR  COMB END  THROAT
 Pinj/P            1.0000   1.0030   1.7828
 P, BAR            8.1600   8.1357   4.5772
 T, K             2710.22  2709.54  2465.51
 RHO, KG/CU M    7.8317-1 7.8104-1 4.8457-1
 H, KJ/KG        -2278.21 -2279.76 -2850.81
 U, KJ/KG        -3320.13 -3321.42 -3795.40
 G, KJ/KG        -34388.8 -34383.9 -32063.5
 S, KJ/(KG)(K)    11.8480  11.8485  11.8485

 M, (1/n)          21.627   21.628   21.702
 (dLV/dLP)t      -1.00322 -1.00321 -1.00145
 (dLV/dLT)p        1.0698   1.0697   1.0341
 Cp, KJ/(KG)(K)    2.6173   2.6167   2.3191
 GAMMAs            1.1975   1.1975   1.2124
 SON VEL,M/SEC     1117.0   1116.9   1070.1
 MACH NUMBER        0.000    0.050    1.000

 PERFORMANCE PARAMETERS

 Ae/At                      11.911   1.0000
 CSTAR, M/SEC               1571.2   1571.2
 CF                         0.0355   0.6811
 Ivac, M/SEC               18742.9   1952.8
 Isp, M/SEC                   55.7   1070.1


 MOLE FRACTIONS

 *CO              0.46179  0.46178  0.45874
 *CO2             0.08668  0.08670  0.09163
 *H               0.00911  0.00910  0.00452
 *H2              0.19369  0.19370  0.20014
 H2O              0.24532  0.24532  0.24374
 *O               0.00009  0.00009  0.00002
 *OH              0.00326  0.00326  0.00121
 *O2              0.00005  0.00005  0.00001

  * THERMODYNAMIC PROPERTIES FITTED TO 20000.K

    PRODUCTS WHICH WERE CONSIDERED BUT WHOSE MOLE FRACTIONS
    WERE LESS THAN 5.000000E-06 FOR ALL ASSIGNED CONDITIONS

 *C              *CH             CH2             CH3             CH2OH          
 CH3O            CH4             CH3OH           CH3OOH          COOH           
 *C2             C2H             C2H2,acetylene  C2H2,vinylidene CH2CO,ketene   
 O(CH)2O         HO(CO)2OH       C2H3,vinyl      CH3CO,acetyl    C2H4           
 C2H4O,ethylen-o CH3CHO,ethanal  CH3COOH         OHCH2COOH       C2H5           
 C2H6            C2H5OH          CH3OCH3         CH3O2CH3        C2O            
 *C3             C3H3,1-propynl  C3H3,2-propynl  C3H4,allene     C3H4,propyne   
 C3H4,cyclo-     C3H5,allyl      C3H6,propylene  C3H6,cyclo-     C3H6O,propylox 
 C3H6O,acetone   C3H6O,propanal  C3H7,n-propyl   C3H7,i-propyl   C3H8           
 C3H8O,1propanol C3H8O,2propanol C3O2            *C4             C4H2,butadiyne 
 C4H4,1,3-cyclo- C4H6,butadiene  C4H6,1butyne    C4H6,2butyne    C4H6,cyclo-    
 C4H8,1-butene   C4H8,cis2-buten C4H8,tr2-butene C4H8,isobutene  C4H8,cyclo-    
 (CH3COOH)2      C4H9,n-butyl    C4H9,i-butyl    C4H9,s-butyl    C4H9,t-butyl   
 C4H10,n-butane  C4H10,isobutane *C5             C5H6,1,3cyclo-  C5H8,cyclo-    
 C5H10,1-pentene C5H10,cyclo-    C5H11,pentyl    C5H11,t-pentyl  C5H12,n-pentane
 C5H12,i-pentane CH3C(CH3)2CH3   C6H2            C6H5,phenyl     C6H5O,phenoxy  
 C6H6            C6H5OH,phenol   C6H10,cyclo-    C6H12,1-hexene  C6H12,cyclo-   
 C6H13,n-hexyl   C6H14,n-hexane  C7H7,benzyl     C7H8            C7H8O,cresol-mx
 C7H14,1-heptene C7H15,n-heptyl  C7H16,n-heptane C7H16,2-methylh C8H8,styrene   
 C8H10,ethylbenz C8H16,1-octene  C8H17,n-octyl   C8H18,n-octane  C8H18,isooctane
 C9H19,n-nonyl   C10H8,naphthale C10H21,n-decyl  C12H9,o-bipheny C12H10,biphenyl
 HCO             HCCO            HO2             HCHO,formaldehy HCOOH          
 H2O2            (HCOOH)2        O3              C(gr)           H2O(cr)        
 H2O(L)         

 NOTE. WEIGHT FRACTION OF FUEL IN TOTAL FUELS AND OF OXIDANT IN TOTAL OXIDANTS






 WARNING!!  ASSIGNED pip =   0.00000 IS NOT PERMITTED
 TO BE LESS THAN  Pinj/Pc =  1.00298. POINT OMITTED (ROCKET)





              THEORETICAL ROCKET PERFORMANCE ASSUMING EQUILIBRIUM

            COMPOSITION DURING EXPANSION FROM FINITE AREA COMBUSTOR

 Pin =   118.4 PSIA
 Ac/At = 11.9101      Pinj/Pinf =  1.001488
 CASE =                

             REACTANT                    WT FRACTION      ENERGY      TEMP
                                          (SEE NOTE)     KJ/KG-MOL      K  
 OXIDANT     O2                           0.9769339      5604.800    484.500
 OXIDANT     H2O                          0.0138396   -235445.986    484.500
 OXIDANT     CO2                          0.0092264   -385891.168    484.500
 FUEL        PMMA                         1.0000000   -442140.000    293.150

 O/F=    0.97738  %FUEL= 50.571907  R,EQ.RATIO= 1.744663  PHI,EQ.RATIO= 2.008411

                 INJECTOR  COMB END  THROAT
 Pinj/P            1.0000   1.0030   1.7828
 P, BAR            8.1600   8.1357   4.5772
 T, K             2710.22  2709.54  2465.51
 RHO, KG/CU M    7.8317-1 7.8104-1 4.8457-1
 H, KJ/KG        -2278.21 -2279.76 -2850.81
 U, KJ/KG        -3320.13 -3321.42 -3795.40
 G, KJ/KG        -34388.8 -34383.9 -32063.5
 S, KJ/(KG)(K)    11.8480  11.8485  11.8485

 M, (1/n)          21.627   21.628   21.702
 (dLV/dLP)t      -1.00322 -1.00321 -1.00145
 (dLV/dLT)p        1.0698   1.0697   1.0341
 Cp, KJ/(KG)(K)    2.6173   2.6167   2.3191
 GAMMAs            1.1975   1.1975   1.2124
 SON VEL,M/SEC     1117.0   1116.9   1070.1
 MACH NUMBER        0.000    0.050    1.000

 PERFORMANCE PARAMETERS

 Ae/At                      11.911   1.0000
 CSTAR, M/SEC               1571.2   1571.2
 CF                         0.0355   0.6811
 Ivac, M/SEC               18742.9   1952.8
 Isp, M/SEC                   55.7   1070.1


 MOLE FRACTIONS

 *CO              0.46179  0.46178  0.45874
 *CO2             0.08668  0.08670  0.09163
 *H               0.00911  0.00910  0.00452
 *H2              0.19369  0.19370  0.20014
 H2O              0.24532  0.24532  0.24374
 *O               0.00009  0.00009  0.00002
 *OH              0.00326  0.00326  0.00121
 *O2              0.00005  0.00005  0.00001

  * THERMODYNAMIC PROPERTIES FITTED TO 20000.K

    PRODUCTS WHICH WERE CONSIDERED BUT WHOSE MOLE FRACTIONS
    WERE LESS THAN 5.000000E-06 FOR ALL ASSIGNED CONDITIONS

 *C              *CH             CH2             CH3             CH2OH          
 CH3O            CH4             CH3OH           CH3OOH          COOH           
 *C2             C2H             C2H2,acetylene  C2H2,vinylidene CH2CO,ketene   
 O(CH)2O         HO(CO)2OH       C2H3,vinyl      CH3CO,acetyl    C2H4           
 C2H4O,ethylen-o CH3CHO,ethanal  CH3COOH         OHCH2COOH       C2H5           
 C2H6            C2H5OH          CH3OCH3         CH3O2CH3        C2O            
 *C3             C3H3,1-propynl  C3H3,2-propynl  C3H4,allene     C3H4,propyne   
 C3H4,cyclo-     C3H5,allyl      C3H6,propylene  C3H6,cyclo-     C3H6O,propylox 
 C3H6O,acetone   C3H6O,propanal  C3H7,n-propyl   C3H7,i-propyl   C3H8           
 C3H8O,1propanol C3H8O,2propanol C3O2            *C4             C4H2,butadiyne 
 C4H4,1,3-cyclo- C4H6,butadiene  C4H6,1butyne    C4H6,2butyne    C4H6,cyclo-    
 C4H8,1-butene   C4H8,cis2-buten C4H8,tr2-butene C4H8,isobutene  C4H8,cyclo-    
 (CH3COOH)2      C4H9,n-butyl    C4H9,i-butyl    C4H9,s-butyl    C4H9,t-butyl   
 C4H10,n-butane  C4H10,isobutane *C5             C5H6,1,3cyclo-  C5H8,cyclo-    
 C5H10,1-pentene C5H10,cyclo-    C5H11,pentyl    C5H11,t-pentyl  C5H12,n-pentane
 C5H12,i-pentane CH3C(CH3)2CH3   C6H2            C6H5,phenyl     C6H5O,phenoxy  
 C6H6            C6H5OH,phenol   C6H10,cyclo-    C6H12,1-hexene  C6H12,cyclo-   
 C6H13,n-hexyl   C6H14,n-hexane  C7H7,benzyl     C7H8            C7H8O,cresol-mx
 C7H14,1-heptene C7H15,n-heptyl  C7H16,n-heptane C7H16,2-methylh C8H8,styrene   
 C8H10,ethylbenz C8H16,1-octene  C8H17,n-octyl   C8H18,n-octane  C8H18,isooctane
 C9H19,n-nonyl   C10H8,naphthale C10H21,n-decyl  C12H9,o-bipheny C12H10,biphenyl
 HCO             HCCO            HO2             HCHO,formaldehy HCOOH          
 H2O2            (HCOOH)2        O3              C(gr)           H2O(cr)        
 H2O(L)         

 NOTE. WEIGHT FRACTION OF FUEL IN TOTAL FUELS AND OF OXIDANT IN TOTAL OXIDANTS






 WARNING!!  ASSIGNED pip =   0.00000 IS NOT PERMITTED
 TO BE LESS THAN  Pinj/Pc =  1.00298. POINT OMITTED (ROCKET)





              THEORETICAL ROCKET PERFORMANCE ASSUMING EQUILIBRIUM

            COMPOSITION DURING EXPANSION FROM FINITE AREA COMBUSTOR

 Pin =   118.4 PSIA
 Ac/At = 11.9101      Pinj/Pinf =  1.001488
 CASE =                

             REACTANT                    WT FRACTION      ENERGY      TEMP
                                          (SEE NOTE)     KJ/KG-MOL      K  
 OXIDANT     O2                           0.9769339      5604.800    484.500
 OXIDANT     H2O                          0.0138396   -235445.986    484.500
 OXIDANT     CO2                          0.0092264   -385891.168    484.500
 FUEL        PMMA                         1.0000000   -442140.000    293.150

 O/F=    0.97738  %FUEL= 50.571907  R,EQ.RATIO= 1.744663  PHI,EQ.RATIO= 2.008411

                 INJECTOR  COMB END  THROAT
 Pinj/P            1.0000   1.0030   1.7828
 P, BAR            8.1600   8.1357   4.5772
 T, K             2710.22  2709.54  2465.51
 RHO, KG/CU M    7.8317-1 7.8104-1 4.8457-1
 H, KJ/KG        -2278.21 -2279.76 -2850.81
 U, KJ/KG        -3320.13 -3321.42 -3795.40
 G, KJ/KG        -34388.8 -34383.9 -32063.5
 S, KJ/(KG)(K)    11.8480  11.8485  11.8485

 M, (1/n)          21.627   21.628   21.702
 (dLV/dLP)t      -1.00322 -1.00321 -1.00145
 (dLV/dLT)p        1.0698   1.0697   1.0341
 Cp, KJ/(KG)(K)    2.6173   2.6167   2.3191
 GAMMAs            1.1975   1.1975   1.2124
 SON VEL,M/SEC     1117.0   1116.9   1070.1
 MACH NUMBER        0.000    0.050    1.000

 PERFORMANCE PARAMETERS

 Ae/At                      11.911   1.0000
 CSTAR, M/SEC               1571.2   1571.2
 CF                         0.0355   0.6811
 Ivac, M/SEC               18742.9   1952.8
 Isp, M/SEC                   55.7   1070.1


 MOLE FRACTIONS

 *CO              0.46179  0.46178  0.45874
 *CO2             0.08668  0.08670  0.09163
 *H               0.00911  0.00910  0.00452
 *H2              0.19369  0.19370  0.20014
 H2O              0.24532  0.24532  0.24374
 *O               0.00009  0.00009  0.00002
 *OH              0.00326  0.00326  0.00121
 *O2              0.00005  0.00005  0.00001

  * THERMODYNAMIC PROPERTIES FITTED TO 20000.K

    PRODUCTS WHICH WERE CONSIDERED BUT WHOSE MOLE FRACTIONS
    WERE LESS THAN 5.000000E-06 FOR ALL ASSIGNED CONDITIONS

 *C              *CH             CH2             CH3             CH2OH          
 CH3O            CH4             CH3OH           CH3OOH          COOH           
 *C2             C2H             C2H2,acetylene  C2H2,vinylidene CH2CO,ketene   
 O(CH)2O         HO(CO)2OH       C2H3,vinyl      CH3CO,acetyl    C2H4           
 C2H4O,ethylen-o CH3CHO,ethanal  CH3COOH         OHCH2COOH       C2H5           
 C2H6            C2H5OH          CH3OCH3         CH3O2CH3        C2O            
 *C3             C3H3,1-propynl  C3H3,2-propynl  C3H4,allene     C3H4,propyne   
 C3H4,cyclo-     C3H5,allyl      C3H6,propylene  C3H6,cyclo-     C3H6O,propylox 
 C3H6O,acetone   C3H6O,propanal  C3H7,n-propyl   C3H7,i-propyl   C3H8           
 C3H8O,1propanol C3H8O,2propanol C3O2            *C4             C4H2,butadiyne 
 C4H4,1,3-cyclo- C4H6,butadiene  C4H6,1butyne    C4H6,2butyne    C4H6,cyclo-    
 C4H8,1-butene   C4H8,cis2-buten C4H8,tr2-butene C4H8,isobutene  C4H8,cyclo-    
 (CH3COOH)2      C4H9,n-butyl    C4H9,i-butyl    C4H9,s-butyl    C4H9,t-butyl   
 C4H10,n-butane  C4H10,isobutane *C5             C5H6,1,3cyclo-  C5H8,cyclo-    
 C5H10,1-pentene C5H10,cyclo-    C5H11,pentyl    C5H11,t-pentyl  C5H12,n-pentane
 C5H12,i-pentane CH3C(CH3)2CH3   C6H2            C6H5,phenyl     C6H5O,phenoxy  
 C6H6            C6H5OH,phenol   C6H10,cyclo-    C6H12,1-hexene  C6H12,cyclo-   
 C6H13,n-hexyl   C6H14,n-hexane  C7H7,benzyl     C7H8            C7H8O,cresol-mx
 C7H14,1-heptene C7H15,n-heptyl  C7H16,n-heptane C7H16,2-methylh C8H8,styrene   
 C8H10,ethylbenz C8H16,1-octene  C8H17,n-octyl   C8H18,n-octane  C8H18,isooctane
 C9H19,n-nonyl   C10H8,naphthale C10H21,n-decyl  C12H9,o-bipheny C12H10,biphenyl
 HCO             HCCO            HO2             HCHO,formaldehy HCOOH          
 H2O2            (HCOOH)2        O3              C(gr)           H2O(cr)        
 H2O(L)         

 NOTE. WEIGHT FRACTION OF FUEL IN TOTAL FUELS AND OF OXIDANT IN TOTAL OXIDANTS






 WARNING!!  ASSIGNED pip =   0.00000 IS NOT PERMITTED
 TO BE LESS THAN  Pinj/Pc =  1.00298. POINT OMITTED (ROCKET)





              THEORETICAL ROCKET PERFORMANCE ASSUMING EQUILIBRIUM

            COMPOSITION DURING EXPANSION FROM FINITE AREA COMBUSTOR

 Pin =   118.4 PSIA
 Ac/At = 11.9101      Pinj/Pinf =  1.001488
 CASE =                

             REACTANT                    WT FRACTION      ENERGY      TEMP
                                          (SEE NOTE)     KJ/KG-MOL      K  
 OXIDANT     O2                           0.9769339      5604.800    484.500
 OXIDANT     H2O                          0.0138396   -235445.986    484.500
 OXIDANT     CO2                          0.0092264   -385891.168    484.500
 FUEL        PMMA                         1.0000000   -442140.000    293.150

 O/F=    0.97738  %FUEL= 50.571907  R,EQ.RATIO= 1.744663  PHI,EQ.RATIO= 2.008411

                 INJECTOR  COMB END  THROAT
 Pinj/P            1.0000   1.0030   1.7828
 P, BAR            8.1600   8.1357   4.5772
 T, K             2710.22  2709.54  2465.51
 RHO, KG/CU M    7.8317-1 7.8104-1 4.8457-1
 H, KJ/KG        -2278.21 -2279.76 -2850.81
 U, KJ/KG        -3320.13 -3321.42 -3795.40
 G, KJ/KG        -34388.8 -34383.9 -32063.5
 S, KJ/(KG)(K)    11.8480  11.8485  11.8485

 M, (1/n)          21.627   21.628   21.702
 (dLV/dLP)t      -1.00322 -1.00321 -1.00145
 (dLV/dLT)p        1.0698   1.0697   1.0341
 Cp, KJ/(KG)(K)    2.6173   2.6167   2.3191
 GAMMAs            1.1975   1.1975   1.2124
 SON VEL,M/SEC     1117.0   1116.9   1070.1
 MACH NUMBER        0.000    0.050    1.000

 PERFORMANCE PARAMETERS

 Ae/At                      11.911   1.0000
 CSTAR, M/SEC               1571.2   1571.2
 CF                         0.0355   0.6811
 Ivac, M/SEC               18742.9   1952.8
 Isp, M/SEC                   55.7   1070.1


 MOLE FRACTIONS

 *CO              0.46179  0.46178  0.45874
 *CO2             0.08668  0.08670  0.09163
 *H               0.00911  0.00910  0.00452
 *H2              0.19369  0.19370  0.20014
 H2O              0.24532  0.24532  0.24374
 *O               0.00009  0.00009  0.00002
 *OH              0.00326  0.00326  0.00121
 *O2              0.00005  0.00005  0.00001

  * THERMODYNAMIC PROPERTIES FITTED TO 20000.K

    PRODUCTS WHICH WERE CONSIDERED BUT WHOSE MOLE FRACTIONS
    WERE LESS THAN 5.000000E-06 FOR ALL ASSIGNED CONDITIONS

 *C              *CH             CH2             CH3             CH2OH          
 CH3O            CH4             CH3OH           CH3OOH          COOH           
 *C2             C2H             C2H2,acetylene  C2H2,vinylidene CH2CO,ketene   
 O(CH)2O         HO(CO)2OH       C2H3,vinyl      CH3CO,acetyl    C2H4           
 C2H4O,ethylen-o CH3CHO,ethanal  CH3COOH         OHCH2COOH       C2H5           
 C2H6            C2H5OH          CH3OCH3         CH3O2CH3        C2O            
 *C3             C3H3,1-propynl  C3H3,2-propynl  C3H4,allene     C3H4,propyne   
 C3H4,cyclo-     C3H5,allyl      C3H6,propylene  C3H6,cyclo-     C3H6O,propylox 
 C3H6O,acetone   C3H6O,propanal  C3H7,n-propyl   C3H7,i-propyl   C3H8           
 C3H8O,1propanol C3H8O,2propanol C3O2            *C4             C4H2,butadiyne 
 C4H4,1,3-cyclo- C4H6,butadiene  C4H6,1butyne    C4H6,2butyne    C4H6,cyclo-    
 C4H8,1-butene   C4H8,cis2-buten C4H8,tr2-butene C4H8,isobutene  C4H8,cyclo-    
 (CH3COOH)2      C4H9,n-butyl    C4H9,i-butyl    C4H9,s-butyl    C4H9,t-butyl   
 C4H10,n-butane  C4H10,isobutane *C5             C5H6,1,3cyclo-  C5H8,cyclo-    
 C5H10,1-pentene C5H10,cyclo-    C5H11,pentyl    C5H11,t-pentyl  C5H12,n-pentane
 C5H12,i-pentane CH3C(CH3)2CH3   C6H2            C6H5,phenyl     C6H5O,phenoxy  
 C6H6            C6H5OH,phenol   C6H10,cyclo-    C6H12,1-hexene  C6H12,cyclo-   
 C6H13,n-hexyl   C6H14,n-hexane  C7H7,benzyl     C7H8            C7H8O,cresol-mx
 C7H14,1-heptene C7H15,n-heptyl  C7H16,n-heptane C7H16,2-methylh C8H8,styrene   
 C8H10,ethylbenz C8H16,1-octene  C8H17,n-octyl   C8H18,n-octane  C8H18,isooctane
 C9H19,n-nonyl   C10H8,naphthale C10H21,n-decyl  C12H9,o-bipheny C12H10,biphenyl
 HCO             HCCO            HO2             HCHO,formaldehy HCOOH          
 H2O2            (HCOOH)2        O3              C(gr)           H2O(cr)        
 H2O(L)         

 NOTE. WEIGHT FRACTION OF FUEL IN TOTAL FUELS AND OF OXIDANT IN TOTAL OXIDANTS






 WARNING!!  ASSIGNED pip =   0.00000 IS NOT PERMITTED
 TO BE LESS THAN  Pinj/Pc =  1.00298. POINT OMITTED (ROCKET)





              THEORETICAL ROCKET PERFORMANCE ASSUMING EQUILIBRIUM

            COMPOSITION DURING EXPANSION FROM FINITE AREA COMBUSTOR

 Pin =   118.4 PSIA
 Ac/At = 11.9101      Pinj/Pinf =  1.001488
 CASE =                

             REACTANT                    WT FRACTION      ENERGY      TEMP
                                          (SEE NOTE)     KJ/KG-MOL      K  
 OXIDANT     O2                           0.9769339      5604.800    484.500
 OXIDANT     H2O                          0.0138396   -235445.986    484.500
 OXIDANT     CO2                          0.0092264   -385891.168    484.500
 FUEL        PMMA                         1.0000000   -442140.000    293.150

 O/F=    0.97738  %FUEL= 50.571907  R,EQ.RATIO= 1.744663  PHI,EQ.RATIO= 2.008411

                 INJECTOR  COMB END  THROAT
 Pinj/P            1.0000   1.0030   1.7828
 P, BAR            8.1600   8.1357   4.5772
 T, K             2710.22  2709.54  2465.51
 RHO, KG/CU M    7.8317-1 7.8104-1 4.8457-1
 H, KJ/KG        -2278.21 -2279.76 -2850.81
 U, KJ/KG        -3320.13 -3321.42 -3795.40
 G, KJ/KG        -34388.8 -34383.9 -32063.5
 S, KJ/(KG)(K)    11.8480  11.8485  11.8485

 M, (1/n)          21.627   21.628   21.702
 (dLV/dLP)t      -1.00322 -1.00321 -1.00145
 (dLV/dLT)p        1.0698   1.0697   1.0341
 Cp, KJ/(KG)(K)    2.6173   2.6167   2.3191
 GAMMAs            1.1975   1.1975   1.2124
 SON VEL,M/SEC     1117.0   1116.9   1070.1
 MACH NUMBER        0.000    0.050    1.000

 PERFORMANCE PARAMETERS

 Ae/At                      11.911   1.0000
 CSTAR, M/SEC               1571.2   1571.2
 CF                         0.0355   0.6811
 Ivac, M/SEC               18742.9   1952.8
 Isp, M/SEC                   55.7   1070.1


 MOLE FRACTIONS

 *CO              0.46179  0.46178  0.45874
 *CO2             0.08668  0.08670  0.09163
 *H               0.00911  0.00910  0.00452
 *H2              0.19369  0.19370  0.20014
 H2O              0.24532  0.24532  0.24374
 *O               0.00009  0.00009  0.00002
 *OH              0.00326  0.00326  0.00121
 *O2              0.00005  0.00005  0.00001

  * THERMODYNAMIC PROPERTIES FITTED TO 20000.K

    PRODUCTS WHICH WERE CONSIDERED BUT WHOSE MOLE FRACTIONS
    WERE LESS THAN 5.000000E-06 FOR ALL ASSIGNED CONDITIONS

 *C              *CH             CH2             CH3             CH2OH          
 CH3O            CH4             CH3OH           CH3OOH          COOH           
 *C2             C2H             C2H2,acetylene  C2H2,vinylidene CH2CO,ketene   
 O(CH)2O         HO(CO)2OH       C2H3,vinyl      CH3CO,acetyl    C2H4           
 C2H4O,ethylen-o CH3CHO,ethanal  CH3COOH         OHCH2COOH       C2H5           
 C2H6            C2H5OH          CH3OCH3         CH3O2CH3        C2O            
 *C3             C3H3,1-propynl  C3H3,2-propynl  C3H4,allene     C3H4,propyne   
 C3H4,cyclo-     C3H5,allyl      C3H6,propylene  C3H6,cyclo-     C3H6O,propylox 
 C3H6O,acetone   C3H6O,propanal  C3H7,n-propyl   C3H7,i-propyl   C3H8           
 C3H8O,1propanol C3H8O,2propanol C3O2            *C4             C4H2,butadiyne 
 C4H4,1,3-cyclo- C4H6,butadiene  C4H6,1butyne    C4H6,2butyne    C4H6,cyclo-    
 C4H8,1-butene   C4H8,cis2-buten C4H8,tr2-butene C4H8,isobutene  C4H8,cyclo-    
 (CH3COOH)2      C4H9,n-butyl    C4H9,i-butyl    C4H9,s-butyl    C4H9,t-butyl   
 C4H10,n-butane  C4H10,isobutane *C5             C5H6,1,3cyclo-  C5H8,cyclo-    
 C5H10,1-pentene C5H10,cyclo-    C5H11,pentyl    C5H11,t-pentyl  C5H12,n-pentane
 C5H12,i-pentane CH3C(CH3)2CH3   C6H2            C6H5,phenyl     C6H5O,phenoxy  
 C6H6            C6H5OH,phenol   C6H10,cyclo-    C6H12,1-hexene  C6H12,cyclo-   
 C6H13,n-hexyl   C6H14,n-hexane  C7H7,benzyl     C7H8            C7H8O,cresol-mx
 C7H14,1-heptene C7H15,n-heptyl  C7H16,n-heptane C7H16,2-methylh C8H8,styrene   
 C8H10,ethylbenz C8H16,1-octene  C8H17,n-octyl   C8H18,n-octane  C8H18,isooctane
 C9H19,n-nonyl   C10H8,naphthale C10H21,n-decyl  C12H9,o-bipheny C12H10,biphenyl
 HCO             HCCO            HO2             HCHO,formaldehy HCOOH          
 H2O2            (HCOOH)2        O3              C(gr)           H2O(cr)        
 H2O(L)         

 NOTE. WEIGHT FRACTION OF FUEL IN TOTAL FUELS AND OF OXIDANT IN TOTAL OXIDANTS






 WARNING!!  ASSIGNED pip =   0.00000 IS NOT PERMITTED
 TO BE LESS THAN  Pinj/Pc =  1.00298. POINT OMITTED (ROCKET)





              THEORETICAL ROCKET PERFORMANCE ASSUMING EQUILIBRIUM

            COMPOSITION DURING EXPANSION FROM FINITE AREA COMBUSTOR

 Pin =   118.4 PSIA
 Ac/At = 11.9101      Pinj/Pinf =  1.001488
 CASE =                

             REACTANT                    WT FRACTION      ENERGY      TEMP
                                          (SEE NOTE)     KJ/KG-MOL      K  
 OXIDANT     O2                           0.9769339      5604.800    484.500
 OXIDANT     H2O                          0.0138396   -235445.986    484.500
 OXIDANT     CO2                          0.0092264   -385891.168    484.500
 FUEL        PMMA                         1.0000000   -442140.000    293.150

 O/F=    0.97738  %FUEL= 50.571907  R,EQ.RATIO= 1.744663  PHI,EQ.RATIO= 2.008411

                 INJECTOR  COMB END  THROAT
 Pinj/P            1.0000   1.0030   1.7828
 P, BAR            8.1600   8.1357   4.5772
 T, K             2710.22  2709.54  2465.51
 RHO, KG/CU M    7.8317-1 7.8104-1 4.8457-1
 H, KJ/KG        -2278.21 -2279.76 -2850.81
 U, KJ/KG        -3320.13 -3321.42 -3795.40
 G, KJ/KG        -34388.8 -34383.9 -32063.5
 S, KJ/(KG)(K)    11.8480  11.8485  11.8485

 M, (1/n)          21.627   21.628   21.702
 (dLV/dLP)t      -1.00322 -1.00321 -1.00145
 (dLV/dLT)p        1.0698   1.0697   1.0341
 Cp, KJ/(KG)(K)    2.6173   2.6167   2.3191
 GAMMAs            1.1975   1.1975   1.2124
 SON VEL,M/SEC     1117.0   1116.9   1070.1
 MACH NUMBER        0.000    0.050    1.000

 PERFORMANCE PARAMETERS

 Ae/At                      11.911   1.0000
 CSTAR, M/SEC               1571.2   1571.2
 CF                         0.0355   0.6811
 Ivac, M/SEC               18742.9   1952.8
 Isp, M/SEC                   55.7   1070.1


 MOLE FRACTIONS

 *CO              0.46179  0.46178  0.45874
 *CO2             0.08668  0.08670  0.09163
 *H               0.00911  0.00910  0.00452
 *H2              0.19369  0.19370  0.20014
 H2O              0.24532  0.24532  0.24374
 *O               0.00009  0.00009  0.00002
 *OH              0.00326  0.00326  0.00121
 *O2              0.00005  0.00005  0.00001

  * THERMODYNAMIC PROPERTIES FITTED TO 20000.K

    PRODUCTS WHICH WERE CONSIDERED BUT WHOSE MOLE FRACTIONS
    WERE LESS THAN 5.000000E-06 FOR ALL ASSIGNED CONDITIONS

 *C              *CH             CH2             CH3             CH2OH          
 CH3O            CH4             CH3OH           CH3OOH          COOH           
 *C2             C2H             C2H2,acetylene  C2H2,vinylidene CH2CO,ketene   
 O(CH)2O         HO(CO)2OH       C2H3,vinyl      CH3CO,acetyl    C2H4           
 C2H4O,ethylen-o CH3CHO,ethanal  CH3COOH         OHCH2COOH       C2H5           
 C2H6            C2H5OH          CH3OCH3         CH3O2CH3        C2O            
 *C3             C3H3,1-propynl  C3H3,2-propynl  C3H4,allene     C3H4,propyne   
 C3H4,cyclo-     C3H5,allyl      C3H6,propylene  C3H6,cyclo-     C3H6O,propylox 
 C3H6O,acetone   C3H6O,propanal  C3H7,n-propyl   C3H7,i-propyl   C3H8           
 C3H8O,1propanol C3H8O,2propanol C3O2            *C4             C4H2,butadiyne 
 C4H4,1,3-cyclo- C4H6,butadiene  C4H6,1butyne    C4H6,2butyne    C4H6,cyclo-    
 C4H8,1-butene   C4H8,cis2-buten C4H8,tr2-butene C4H8,isobutene  C4H8,cyclo-    
 (CH3COOH)2      C4H9,n-butyl    C4H9,i-butyl    C4H9,s-butyl    C4H9,t-butyl   
 C4H10,n-butane  C4H10,isobutane *C5             C5H6,1,3cyclo-  C5H8,cyclo-    
 C5H10,1-pentene C5H10,cyclo-    C5H11,pentyl    C5H11,t-pentyl  C5H12,n-pentane
 C5H12,i-pentane CH3C(CH3)2CH3   C6H2            C6H5,phenyl     C6H5O,phenoxy  
 C6H6            C6H5OH,phenol   C6H10,cyclo-    C6H12,1-hexene  C6H12,cyclo-   
 C6H13,n-hexyl   C6H14,n-hexane  C7H7,benzyl     C7H8            C7H8O,cresol-mx
 C7H14,1-heptene C7H15,n-heptyl  C7H16,n-heptane C7H16,2-methylh C8H8,styrene   
 C8H10,ethylbenz C8H16,1-octene  C8H17,n-octyl   C8H18,n-octane  C8H18,isooctane
 C9H19,n-nonyl   C10H8,naphthale C10H21,n-decyl  C12H9,o-bipheny C12H10,biphenyl
 HCO             HCCO            HO2             HCHO,formaldehy HCOOH          
 H2O2            (HCOOH)2        O3              C(gr)           H2O(cr)        
 H2O(L)         

 NOTE. WEIGHT FRACTION OF FUEL IN TOTAL FUELS AND OF OXIDANT IN TOTAL OXIDANTS






 WARNING!!  ASSIGNED pip =   0.00000 IS NOT PERMITTED
 TO BE LESS THAN  Pinj/Pc =  1.00298. POINT OMITTED (ROCKET)





              THEORETICAL ROCKET PERFORMANCE ASSUMING EQUILIBRIUM

            COMPOSITION DURING EXPANSION FROM FINITE AREA COMBUSTOR

 Pin =   118.4 PSIA
 Ac/At = 11.9101      Pinj/Pinf =  1.001488
 CASE =                

             REACTANT                    WT FRACTION      ENERGY      TEMP
                                          (SEE NOTE)     KJ/KG-MOL      K  
 OXIDANT     O2                           0.9769339      5604.800    484.500
 OXIDANT     H2O                          0.0138396   -235445.986    484.500
 OXIDANT     CO2                          0.0092264   -385891.168    484.500
 FUEL        PMMA                         1.0000000   -442140.000    293.150

 O/F=    0.97738  %FUEL= 50.571907  R,EQ.RATIO= 1.744663  PHI,EQ.RATIO= 2.008411

                 INJECTOR  COMB END  THROAT
 Pinj/P            1.0000   1.0030   1.7828
 P, BAR            8.1600   8.1357   4.5772
 T, K             2710.22  2709.54  2465.51
 RHO, KG/CU M    7.8317-1 7.8104-1 4.8457-1
 H, KJ/KG        -2278.21 -2279.76 -2850.81
 U, KJ/KG        -3320.13 -3321.42 -3795.40
 G, KJ/KG        -34388.8 -34383.9 -32063.5
 S, KJ/(KG)(K)    11.8480  11.8485  11.8485

 M, (1/n)          21.627   21.628   21.702
 (dLV/dLP)t      -1.00322 -1.00321 -1.00145
 (dLV/dLT)p        1.0698   1.0697   1.0341
 Cp, KJ/(KG)(K)    2.6173   2.6167   2.3191
 GAMMAs            1.1975   1.1975   1.2124
 SON VEL,M/SEC     1117.0   1116.9   1070.1
 MACH NUMBER        0.000    0.050    1.000

 PERFORMANCE PARAMETERS

 Ae/At                      11.911   1.0000
 CSTAR, M/SEC               1571.2   1571.2
 CF                         0.0355   0.6811
 Ivac, M/SEC               18742.9   1952.8
 Isp, M/SEC                   55.7   1070.1


 MOLE FRACTIONS

 *CO              0.46179  0.46178  0.45874
 *CO2             0.08668  0.08670  0.09163
 *H               0.00911  0.00910  0.00452
 *H2              0.19369  0.19370  0.20014
 H2O              0.24532  0.24532  0.24374
 *O               0.00009  0.00009  0.00002
 *OH              0.00326  0.00326  0.00121
 *O2              0.00005  0.00005  0.00001

  * THERMODYNAMIC PROPERTIES FITTED TO 20000.K

    PRODUCTS WHICH WERE CONSIDERED BUT WHOSE MOLE FRACTIONS
    WERE LESS THAN 5.000000E-06 FOR ALL ASSIGNED CONDITIONS

 *C              *CH             CH2             CH3             CH2OH          
 CH3O            CH4             CH3OH           CH3OOH          COOH           
 *C2             C2H             C2H2,acetylene  C2H2,vinylidene CH2CO,ketene   
 O(CH)2O         HO(CO)2OH       C2H3,vinyl      CH3CO,acetyl    C2H4           
 C2H4O,ethylen-o CH3CHO,ethanal  CH3COOH         OHCH2COOH       C2H5           
 C2H6            C2H5OH          CH3OCH3         CH3O2CH3        C2O            
 *C3             C3H3,1-propynl  C3H3,2-propynl  C3H4,allene     C3H4,propyne   
 C3H4,cyclo-     C3H5,allyl      C3H6,propylene  C3H6,cyclo-     C3H6O,propylox 
 C3H6O,acetone   C3H6O,propanal  C3H7,n-propyl   C3H7,i-propyl   C3H8           
 C3H8O,1propanol C3H8O,2propanol C3O2            *C4             C4H2,butadiyne 
 C4H4,1,3-cyclo- C4H6,butadiene  C4H6,1butyne    C4H6,2butyne    C4H6,cyclo-    
 C4H8,1-butene   C4H8,cis2-buten C4H8,tr2-butene C4H8,isobutene  C4H8,cyclo-    
 (CH3COOH)2      C4H9,n-butyl    C4H9,i-butyl    C4H9,s-butyl    C4H9,t-butyl   
 C4H10,n-butane  C4H10,isobutane *C5             C5H6,1,3cyclo-  C5H8,cyclo-    
 C5H10,1-pentene C5H10,cyclo-    C5H11,pentyl    C5H11,t-pentyl  C5H12,n-pentane
 C5H12,i-pentane CH3C(CH3)2CH3   C6H2            C6H5,phenyl     C6H5O,phenoxy  
 C6H6            C6H5OH,phenol   C6H10,cyclo-    C6H12,1-hexene  C6H12,cyclo-   
 C6H13,n-hexyl   C6H14,n-hexane  C7H7,benzyl     C7H8            C7H8O,cresol-mx
 C7H14,1-heptene C7H15,n-heptyl  C7H16,n-heptane C7H16,2-methylh C8H8,styrene   
 C8H10,ethylbenz C8H16,1-octene  C8H17,n-octyl   C8H18,n-octane  C8H18,isooctane
 C9H19,n-nonyl   C10H8,naphthale C10H21,n-decyl  C12H9,o-bipheny C12H10,biphenyl
 HCO             HCCO            HO2             HCHO,formaldehy HCOOH          
 H2O2            (HCOOH)2        O3              C(gr)           H2O(cr)        
 H2O(L)         

 NOTE. WEIGHT FRACTION OF FUEL IN TOTAL FUELS AND OF OXIDANT IN TOTAL OXIDANTS






 WARNING!!  ASSIGNED pip =   0.00000 IS NOT PERMITTED
 TO BE LESS THAN  Pinj/Pc =  1.00298. POINT OMITTED (ROCKET)





              THEORETICAL ROCKET PERFORMANCE ASSUMING EQUILIBRIUM

            COMPOSITION DURING EXPANSION FROM FINITE AREA COMBUSTOR

 Pin =   118.4 PSIA
 Ac/At = 11.9101      Pinj/Pinf =  1.001488
 CASE =                

             REACTANT                    WT FRACTION      ENERGY      TEMP
                                          (SEE NOTE)     KJ/KG-MOL      K  
 OXIDANT     O2                           0.9769339      5604.800    484.500
 OXIDANT     H2O                          0.0138396   -235445.986    484.500
 OXIDANT     CO2                          0.0092264   -385891.168    484.500
 FUEL        PMMA                         1.0000000   -442140.000    293.150

 O/F=    0.97738  %FUEL= 50.571907  R,EQ.RATIO= 1.744663  PHI,EQ.RATIO= 2.008411

                 INJECTOR  COMB END  THROAT
 Pinj/P            1.0000   1.0030   1.7828
 P, BAR            8.1600   8.1357   4.5772
 T, K             2710.22  2709.54  2465.51
 RHO, KG/CU M    7.8317-1 7.8104-1 4.8457-1
 H, KJ/KG        -2278.21 -2279.76 -2850.81
 U, KJ/KG        -3320.13 -3321.42 -3795.40
 G, KJ/KG        -34388.8 -34383.9 -32063.5
 S, KJ/(KG)(K)    11.8480  11.8485  11.8485

 M, (1/n)          21.627   21.628   21.702
 (dLV/dLP)t      -1.00322 -1.00321 -1.00145
 (dLV/dLT)p        1.0698   1.0697   1.0341
 Cp, KJ/(KG)(K)    2.6173   2.6167   2.3191
 GAMMAs            1.1975   1.1975   1.2124
 SON VEL,M/SEC     1117.0   1116.9   1070.1
 MACH NUMBER        0.000    0.050    1.000

 PERFORMANCE PARAMETERS

 Ae/At                      11.911   1.0000
 CSTAR, M/SEC               1571.2   1571.2
 CF                         0.0355   0.6811
 Ivac, M/SEC               18742.9   1952.8
 Isp, M/SEC                   55.7   1070.1


 MOLE FRACTIONS

 *CO              0.46179  0.46178  0.45874
 *CO2             0.08668  0.08670  0.09163
 *H               0.00911  0.00910  0.00452
 *H2              0.19369  0.19370  0.20014
 H2O              0.24532  0.24532  0.24374
 *O               0.00009  0.00009  0.00002
 *OH              0.00326  0.00326  0.00121
 *O2              0.00005  0.00005  0.00001

  * THERMODYNAMIC PROPERTIES FITTED TO 20000.K

    PRODUCTS WHICH WERE CONSIDERED BUT WHOSE MOLE FRACTIONS
    WERE LESS THAN 5.000000E-06 FOR ALL ASSIGNED CONDITIONS

 *C              *CH             CH2             CH3             CH2OH          
 CH3O            CH4             CH3OH           CH3OOH          COOH           
 *C2             C2H             C2H2,acetylene  C2H2,vinylidene CH2CO,ketene   
 O(CH)2O         HO(CO)2OH       C2H3,vinyl      CH3CO,acetyl    C2H4           
 C2H4O,ethylen-o CH3CHO,ethanal  CH3COOH         OHCH2COOH       C2H5           
 C2H6            C2H5OH          CH3OCH3         CH3O2CH3        C2O            
 *C3             C3H3,1-propynl  C3H3,2-propynl  C3H4,allene     C3H4,propyne   
 C3H4,cyclo-     C3H5,allyl      C3H6,propylene  C3H6,cyclo-     C3H6O,propylox 
 C3H6O,acetone   C3H6O,propanal  C3H7,n-propyl   C3H7,i-propyl   C3H8           
 C3H8O,1propanol C3H8O,2propanol C3O2            *C4             C4H2,butadiyne 
 C4H4,1,3-cyclo- C4H6,butadiene  C4H6,1butyne    C4H6,2butyne    C4H6,cyclo-    
 C4H8,1-butene   C4H8,cis2-buten C4H8,tr2-butene C4H8,isobutene  C4H8,cyclo-    
 (CH3COOH)2      C4H9,n-butyl    C4H9,i-butyl    C4H9,s-butyl    C4H9,t-butyl   
 C4H10,n-butane  C4H10,isobutane *C5             C5H6,1,3cyclo-  C5H8,cyclo-    
 C5H10,1-pentene C5H10,cyclo-    C5H11,pentyl    C5H11,t-pentyl  C5H12,n-pentane
 C5H12,i-pentane CH3C(CH3)2CH3   C6H2            C6H5,phenyl     C6H5O,phenoxy  
 C6H6            C6H5OH,phenol   C6H10,cyclo-    C6H12,1-hexene  C6H12,cyclo-   
 C6H13,n-hexyl   C6H14,n-hexane  C7H7,benzyl     C7H8            C7H8O,cresol-mx
 C7H14,1-heptene C7H15,n-heptyl  C7H16,n-heptane C7H16,2-methylh C8H8,styrene   
 C8H10,ethylbenz C8H16,1-octene  C8H17,n-octyl   C8H18,n-octane  C8H18,isooctane
 C9H19,n-nonyl   C10H8,naphthale C10H21,n-decyl  C12H9,o-bipheny C12H10,biphenyl
 HCO             HCCO            HO2             HCHO,formaldehy HCOOH          
 H2O2            (HCOOH)2        O3              C(gr)           H2O(cr)        
 H2O(L)         

 NOTE. WEIGHT FRACTION OF FUEL IN TOTAL FUELS AND OF OXIDANT IN TOTAL OXIDANTS






 WARNING!!  ASSIGNED pip =   0.00000 IS NOT PERMITTED
 TO BE LESS THAN  Pinj/Pc =  1.00298. POINT OMITTED (ROCKET)





              THEORETICAL ROCKET PERFORMANCE ASSUMING EQUILIBRIUM

            COMPOSITION DURING EXPANSION FROM FINITE AREA COMBUSTOR

 Pin =   118.4 PSIA
 Ac/At = 11.9101      Pinj/Pinf =  1.001488
 CASE =                

             REACTANT                    WT FRACTION      ENERGY      TEMP
                                          (SEE NOTE)     KJ/KG-MOL      K  
 OXIDANT     O2                           0.9769339      5604.800    484.500
 OXIDANT     H2O                          0.0138396   -235445.986    484.500
 OXIDANT     CO2                          0.0092264   -385891.168    484.500
 FUEL        PMMA                         1.0000000   -442140.000    293.150

 O/F=    0.97738  %FUEL= 50.571907  R,EQ.RATIO= 1.744663  PHI,EQ.RATIO= 2.008411

                 INJECTOR  COMB END  THROAT
 Pinj/P            1.0000   1.0030   1.7828
 P, BAR            8.1600   8.1357   4.5772
 T, K             2710.22  2709.54  2465.51
 RHO, KG/CU M    7.8317-1 7.8104-1 4.8457-1
 H, KJ/KG        -2278.21 -2279.76 -2850.81
 U, KJ/KG        -3320.13 -3321.42 -3795.40
 G, KJ/KG        -34388.8 -34383.9 -32063.5
 S, KJ/(KG)(K)    11.8480  11.8485  11.8485

 M, (1/n)          21.627   21.628   21.702
 (dLV/dLP)t      -1.00322 -1.00321 -1.00145
 (dLV/dLT)p        1.0698   1.0697   1.0341
 Cp, KJ/(KG)(K)    2.6173   2.6167   2.3191
 GAMMAs            1.1975   1.1975   1.2124
 SON VEL,M/SEC     1117.0   1116.9   1070.1
 MACH NUMBER        0.000    0.050    1.000

 PERFORMANCE PARAMETERS

 Ae/At                      11.911   1.0000
 CSTAR, M/SEC               1571.2   1571.2
 CF                         0.0355   0.6811
 Ivac, M/SEC               18742.9   1952.8
 Isp, M/SEC                   55.7   1070.1


 MOLE FRACTIONS

 *CO              0.46179  0.46178  0.45874
 *CO2             0.08668  0.08670  0.09163
 *H               0.00911  0.00910  0.00452
 *H2              0.19369  0.19370  0.20014
 H2O              0.24532  0.24532  0.24374
 *O               0.00009  0.00009  0.00002
 *OH              0.00326  0.00326  0.00121
 *O2              0.00005  0.00005  0.00001

  * THERMODYNAMIC PROPERTIES FITTED TO 20000.K

    PRODUCTS WHICH WERE CONSIDERED BUT WHOSE MOLE FRACTIONS
    WERE LESS THAN 5.000000E-06 FOR ALL ASSIGNED CONDITIONS

 *C              *CH             CH2             CH3             CH2OH          
 CH3O            CH4             CH3OH           CH3OOH          COOH           
 *C2             C2H             C2H2,acetylene  C2H2,vinylidene CH2CO,ketene   
 O(CH)2O         HO(CO)2OH       C2H3,vinyl      CH3CO,acetyl    C2H4           
 C2H4O,ethylen-o CH3CHO,ethanal  CH3COOH         OHCH2COOH       C2H5           
 C2H6            C2H5OH          CH3OCH3         CH3O2CH3        C2O            
 *C3             C3H3,1-propynl  C3H3,2-propynl  C3H4,allene     C3H4,propyne   
 C3H4,cyclo-     C3H5,allyl      C3H6,propylene  C3H6,cyclo-     C3H6O,propylox 
 C3H6O,acetone   C3H6O,propanal  C3H7,n-propyl   C3H7,i-propyl   C3H8           
 C3H8O,1propanol C3H8O,2propanol C3O2            *C4             C4H2,butadiyne 
 C4H4,1,3-cyclo- C4H6,butadiene  C4H6,1butyne    C4H6,2butyne    C4H6,cyclo-    
 C4H8,1-butene   C4H8,cis2-buten C4H8,tr2-butene C4H8,isobutene  C4H8,cyclo-    
 (CH3COOH)2      C4H9,n-butyl    C4H9,i-butyl    C4H9,s-butyl    C4H9,t-butyl   
 C4H10,n-butane  C4H10,isobutane *C5             C5H6,1,3cyclo-  C5H8,cyclo-    
 C5H10,1-pentene C5H10,cyclo-    C5H11,pentyl    C5H11,t-pentyl  C5H12,n-pentane
 C5H12,i-pentane CH3C(CH3)2CH3   C6H2            C6H5,phenyl     C6H5O,phenoxy  
 C6H6            C6H5OH,phenol   C6H10,cyclo-    C6H12,1-hexene  C6H12,cyclo-   
 C6H13,n-hexyl   C6H14,n-hexane  C7H7,benzyl     C7H8            C7H8O,cresol-mx
 C7H14,1-heptene C7H15,n-heptyl  C7H16,n-heptane C7H16,2-methylh C8H8,styrene   
 C8H10,ethylbenz C8H16,1-octene  C8H17,n-octyl   C8H18,n-octane  C8H18,isooctane
 C9H19,n-nonyl   C10H8,naphthale C10H21,n-decyl  C12H9,o-bipheny C12H10,biphenyl
 HCO             HCCO            HO2             HCHO,formaldehy HCOOH          
 H2O2            (HCOOH)2        O3              C(gr)           H2O(cr)        
 H2O(L)         

 NOTE. WEIGHT FRACTION OF FUEL IN TOTAL FUELS AND OF OXIDANT IN TOTAL OXIDANTS






 WARNING!!  ASSIGNED pip =   0.00000 IS NOT PERMITTED
 TO BE LESS THAN  Pinj/Pc =  1.00298. POINT OMITTED (ROCKET)





              THEORETICAL ROCKET PERFORMANCE ASSUMING EQUILIBRIUM

            COMPOSITION DURING EXPANSION FROM FINITE AREA COMBUSTOR

 Pin =   118.4 PSIA
 Ac/At = 11.9101      Pinj/Pinf =  1.001488
 CASE =                

             REACTANT                    WT FRACTION      ENERGY      TEMP
                                          (SEE NOTE)     KJ/KG-MOL      K  
 OXIDANT     O2                           0.9769339      5604.800    484.500
 OXIDANT     H2O                          0.0138396   -235445.986    484.500
 OXIDANT     CO2                          0.0092264   -385891.168    484.500
 FUEL        PMMA                         1.0000000   -442140.000    293.150

 O/F=    0.97738  %FUEL= 50.571907  R,EQ.RATIO= 1.744663  PHI,EQ.RATIO= 2.008411

                 INJECTOR  COMB END  THROAT
 Pinj/P            1.0000   1.0030   1.7828
 P, BAR            8.1600   8.1357   4.5772
 T, K             2710.22  2709.54  2465.51
 RHO, KG/CU M    7.8317-1 7.8104-1 4.8457-1
 H, KJ/KG        -2278.21 -2279.76 -2850.81
 U, KJ/KG        -3320.13 -3321.42 -3795.40
 G, KJ/KG        -34388.8 -34383.9 -32063.5
 S, KJ/(KG)(K)    11.8480  11.8485  11.8485

 M, (1/n)          21.627   21.628   21.702
 (dLV/dLP)t      -1.00322 -1.00321 -1.00145
 (dLV/dLT)p        1.0698   1.0697   1.0341
 Cp, KJ/(KG)(K)    2.6173   2.6167   2.3191
 GAMMAs            1.1975   1.1975   1.2124
 SON VEL,M/SEC     1117.0   1116.9   1070.1
 MACH NUMBER        0.000    0.050    1.000

 PERFORMANCE PARAMETERS

 Ae/At                      11.911   1.0000
 CSTAR, M/SEC               1571.2   1571.2
 CF                         0.0355   0.6811
 Ivac, M/SEC               18742.9   1952.8
 Isp, M/SEC                   55.7   1070.1


 MOLE FRACTIONS

 *CO              0.46179  0.46178  0.45874
 *CO2             0.08668  0.08670  0.09163
 *H               0.00911  0.00910  0.00452
 *H2              0.19369  0.19370  0.20014
 H2O              0.24532  0.24532  0.24374
 *O               0.00009  0.00009  0.00002
 *OH              0.00326  0.00326  0.00121
 *O2              0.00005  0.00005  0.00001

  * THERMODYNAMIC PROPERTIES FITTED TO 20000.K

    PRODUCTS WHICH WERE CONSIDERED BUT WHOSE MOLE FRACTIONS
    WERE LESS THAN 5.000000E-06 FOR ALL ASSIGNED CONDITIONS

 *C              *CH             CH2             CH3             CH2OH          
 CH3O            CH4             CH3OH           CH3OOH          COOH           
 *C2             C2H             C2H2,acetylene  C2H2,vinylidene CH2CO,ketene   
 O(CH)2O         HO(CO)2OH       C2H3,vinyl      CH3CO,acetyl    C2H4           
 C2H4O,ethylen-o CH3CHO,ethanal  CH3COOH         OHCH2COOH       C2H5           
 C2H6            C2H5OH          CH3OCH3         CH3O2CH3        C2O            
 *C3             C3H3,1-propynl  C3H3,2-propynl  C3H4,allene     C3H4,propyne   
 C3H4,cyclo-     C3H5,allyl      C3H6,propylene  C3H6,cyclo-     C3H6O,propylox 
 C3H6O,acetone   C3H6O,propanal  C3H7,n-propyl   C3H7,i-propyl   C3H8           
 C3H8O,1propanol C3H8O,2propanol C3O2            *C4             C4H2,butadiyne 
 C4H4,1,3-cyclo- C4H6,butadiene  C4H6,1butyne    C4H6,2butyne    C4H6,cyclo-    
 C4H8,1-butene   C4H8,cis2-buten C4H8,tr2-butene C4H8,isobutene  C4H8,cyclo-    
 (CH3COOH)2      C4H9,n-butyl    C4H9,i-butyl    C4H9,s-butyl    C4H9,t-butyl   
 C4H10,n-butane  C4H10,isobutane *C5             C5H6,1,3cyclo-  C5H8,cyclo-    
 C5H10,1-pentene C5H10,cyclo-    C5H11,pentyl    C5H11,t-pentyl  C5H12,n-pentane
 C5H12,i-pentane CH3C(CH3)2CH3   C6H2            C6H5,phenyl     C6H5O,phenoxy  
 C6H6            C6H5OH,phenol   C6H10,cyclo-    C6H12,1-hexene  C6H12,cyclo-   
 C6H13,n-hexyl   C6H14,n-hexane  C7H7,benzyl     C7H8            C7H8O,cresol-mx
 C7H14,1-heptene C7H15,n-heptyl  C7H16,n-heptane C7H16,2-methylh C8H8,styrene   
 C8H10,ethylbenz C8H16,1-octene  C8H17,n-octyl   C8H18,n-octane  C8H18,isooctane
 C9H19,n-nonyl   C10H8,naphthale C10H21,n-decyl  C12H9,o-bipheny C12H10,biphenyl
 HCO             HCCO            HO2             HCHO,formaldehy HCOOH          
 H2O2            (HCOOH)2        O3              C(gr)           H2O(cr)        
 H2O(L)         

 NOTE. WEIGHT FRACTION OF FUEL IN TOTAL FUELS AND OF OXIDANT IN TOTAL OXIDANTS





   4    4    1733.190     -24.647     -10.443     -11.461





              THEORETICAL ROCKET PERFORMANCE ASSUMING EQUILIBRIUM

            COMPOSITION DURING EXPANSION FROM FINITE AREA COMBUSTOR

 Pin =   118.4 PSIA
 Ac/At = 11.9101      Pinj/Pinf =  1.001488
 CASE =                

             REACTANT                    WT FRACTION      ENERGY      TEMP
                                          (SEE NOTE)     KJ/KG-MOL      K  
 OXIDANT     O2                           0.9769339      5604.800    484.500
 OXIDANT     H2O                          0.0138396   -235445.986    484.500
 OXIDANT     CO2                          0.0092264   -385891.168    484.500
 FUEL        PMMA                         1.0000000   -442140.000    293.150

 O/F=    0.97738  %FUEL= 50.571907  R,EQ.RATIO= 1.744663  PHI,EQ.RATIO= 2.008411

                 INJECTOR  COMB END  THROAT     EXIT
 Pinj/P            1.0000   1.0030   1.7828   11.910
 P, BAR            8.1600   8.1357   4.5772  0.68513
 T, K             2710.22  2709.54  2465.51  1733.19
 RHO, KG/CU M    7.8317-1 7.8104-1 4.8457-1 1.0347-1
 H, KJ/KG        -2278.21 -2279.76 -2850.81 -4365.27
 U, KJ/KG        -3320.13 -3321.42 -3795.40 -5027.41
 G, KJ/KG        -34388.8 -34383.9 -32063.5 -24901.0
 S, KJ/(KG)(K)    11.8480  11.8485  11.8485  11.8485

 M, (1/n)          21.627   21.628   21.702   21.764
 (dLV/dLP)t      -1.00322 -1.00321 -1.00145 -1.00003
 (dLV/dLT)p        1.0698   1.0697   1.0341   1.0010
 Cp, KJ/(KG)(K)    2.6173   2.6167   2.3191   1.9720
 GAMMAs            1.1975   1.1975   1.2124   1.2408
 SON VEL,M/SEC     1117.0   1116.9   1070.1    906.4
 MACH NUMBER        0.000    0.050    1.000    2.254

 PERFORMANCE PARAMETERS

 Ae/At                      11.911   1.0000   2.4530
 CSTAR, M/SEC               1571.2   1571.2   1571.2
 CF                         0.0355   0.6811   1.3003
 Ivac, M/SEC               18742.9   1952.8   2367.2
 Isp, M/SEC                   55.7   1070.1   2043.1


 MOLE FRACTIONS

 *CO              0.46179  0.46178  0.45874  0.43416
 *CO2             0.08668  0.08670  0.09163  0.11777
 *H               0.00911  0.00910  0.00452  0.00012
 *H2              0.19369  0.19370  0.20014  0.22816
 H2O              0.24532  0.24532  0.24374  0.21979
 *O               0.00009  0.00009  0.00002  0.00000
 *OH              0.00326  0.00326  0.00121  0.00001
 *O2              0.00005  0.00005  0.00001  0.00000

  * THERMODYNAMIC PROPERTIES FITTED TO 20000.K

    PRODUCTS WHICH WERE CONSIDERED BUT WHOSE MOLE FRACTIONS
    WERE LESS THAN 5.000000E-06 FOR ALL ASSIGNED CONDITIONS

 *C              *CH             CH2             CH3             CH2OH          
 CH3O            CH4             CH3OH           CH3OOH          COOH           
 *C2             C2H             C2H2,acetylene  C2H2,vinylidene CH2CO,ketene   
 O(CH)2O         HO(CO)2OH       C2H3,vinyl      CH3CO,acetyl    C2H4           
 C2H4O,ethylen-o CH3CHO,ethanal  CH3COOH         OHCH2COOH       C2H5           
 C2H6            C2H5OH          CH3OCH3         CH3O2CH3        C2O            
 *C3             C3H3,1-propynl  C3H3,2-propynl  C3H4,allene     C3H4,propyne   
 C3H4,cyclo-     C3H5,allyl      C3H6,propylene  C3H6,cyclo-     C3H6O,propylox 
 C3H6O,acetone   C3H6O,propanal  C3H7,n-propyl   C3H7,i-propyl   C3H8           
 C3H8O,1propanol C3H8O,2propanol C3O2            *C4             C4H2,butadiyne 
 C4H4,1,3-cyclo- C4H6,butadiene  C4H6,1butyne    C4H6,2butyne    C4H6,cyclo-    
 C4H8,1-butene   C4H8,cis2-buten C4H8,tr2-butene C4H8,isobutene  C4H8,cyclo-    
 (CH3COOH)2      C4H9,n-butyl    C4H9,i-butyl    C4H9,s-butyl    C4H9,t-butyl   
 C4H10,n-butane  C4H10,isobutane *C5             C5H6,1,3cyclo-  C5H8,cyclo-    
 C5H10,1-pentene C5H10,cyclo-    C5H11,pentyl    C5H11,t-pentyl  C5H12,n-pentane
 C5H12,i-pentane CH3C(CH3)2CH3   C6H2            C6H5,phenyl     C6H5O,phenoxy  
 C6H6            C6H5OH,phenol   C6H10,cyclo-    C6H12,1-hexene  C6H12,cyclo-   
 C6H13,n-hexyl   C6H14,n-hexane  C7H7,benzyl     C7H8            C7H8O,cresol-mx
 C7H14,1-heptene C7H15,n-heptyl  C7H16,n-heptane C7H16,2-methylh C8H8,styrene   
 C8H10,ethylbenz C8H16,1-octene  C8H17,n-octyl   C8H18,n-octane  C8H18,isooctane
 C9H19,n-nonyl   C10H8,naphthale C10H21,n-decyl  C12H9,o-bipheny C12H10,biphenyl
 HCO             HCCO            HO2             HCHO,formaldehy HCOOH          
 H2O2            (HCOOH)2        O3              C(gr)           H2O(cr)        
 H2O(L)         

 NOTE. WEIGHT FRACTION OF FUEL IN TOTAL FUELS AND OF OXIDANT IN TOTAL OXIDANTS



