
 *******************************************************************************

         NASA-GLENN CHEMICAL EQUILIBRIUM PROGRAM CEA2, MAY 21, 2004
                   BY  BONNIE MCBRIDE AND SANFORD GORDON
      REFS: NASA RP-1311, PART I, 1994 AND NASA RP-1311, PART II, 1996

 *******************************************************************************



 prob rocket fac p,bar=68,ac/at=1.00,
 sub=25, pi/pe=68, eq
 reac
   fuel = CH4  moles=0.60 t(k)= 298.15
   oxid = N2O  moles=0.5  t(k)= 298.15
   oxid = O2   moles=0.5  t(k)= 298.15
 end

 OPTIONS: TP=F  HP=F  SP=F  TV=F  UV=F  SV=F  DETN=F  SHOCK=F  REFL=F  INCD=F
 RKT=T  FROZ=F  EQL=T  IONS=F  SIUNIT=T  DEBUGF=F  SHKDBG=F  DETDBG=T  TRNSPT=F

 TRACE= 0.00E+00  S/R= 0.000000E+00  H/R= 0.000000E+00  U/R= 0.000000E+00

 Pc,BAR =    68.000000

 Pc/P =    68.0000

 SUBSONIC AREA RATIOS =    25.0000

 SUPERSONIC AREA RATIOS =

 NFZ=  1  Mdot/Ac= 0.000000E+00  Ac/At= 1.000000E+00

    REACTANT           MOLES    (ENERGY/R),K   TEMP,K  DENSITY
        EXPLODED FORMULA
 F: CH4              0.600000  -0.897227E+04   298.15  0.0000
          C  1.00000  H  4.00000
 O: N2O              0.500000   0.981417E+04   298.15  0.0000
          N  2.00000  O  1.00000
 O: O2               0.500000  -0.154035E-05   298.15  0.0000
          O  2.00000

  SPECIES BEING CONSIDERED IN THIS SYSTEM
 (CONDENSED PHASE MAY HAVE NAME LISTED SEVERAL TIMES)
  LAST thermo.inp UPDATE:    9/09/04

  g 7/97  *C               tpis79  *CH              g 4/02  CH2            
  g 4/02  CH3              g11/00  CH2OH            g 7/00  CH3O           
  g 8/99  CH4              g 7/00  CH3OH            srd 01  CH3OOH         
  g 8/99  *CN              g12/99  CNN              tpis79  *CO            
  g 9/99  *CO2             tpis91  COOH             tpis91  *C2            
  g 6/01  C2H              g 1/91  C2H2,acetylene   g 5/01  C2H2,vinylidene
  g 4/02  CH2CO,ketene     g 3/02  O(CH)2O          srd 01  HO(CO)2OH      
  g 7/01  C2H3,vinyl       g 9/00  CH3CN            g 6/96  CH3CO,acetyl   
  g 1/00  C2H4             g 8/88  C2H4O,ethylen-o  g 8/88  CH3CHO,ethanal 
  g 6/00  CH3COOH          srd 01  OHCH2COOH        g 7/00  C2H5           
  g 7/00  C2H6             g 8/88  CH3N2CH3         g 8/88  C2H5OH         
  g 7/00  CH3OCH3          srd 01  CH3O2CH3         g 7/00  CCN            
  tpis91  CNC              srd 01  OCCN             tpis79  C2N2           
  g 8/00  C2O              tpis79  *C3              n 4/98  C3H3,1-propynl 
  n 4/98  C3H3,2-propynl   g 2/00  C3H4,allene      g 1/00  C3H4,propyne   
  g 5/90  C3H4,cyclo-      g 3/01  C3H5,allyl       g 2/00  C3H6,propylene 
  g 1/00  C3H6,cyclo-      g 6/01  C3H6O,propylox   g 6/97  C3H6O,acetone  
  g 1/02  C3H6O,propanal   g 7/01  C3H7,n-propyl    g 9/85  C3H7,i-propyl  
  g 2/00  C3H8             g 2/00  C3H8O,1propanol  g 2/00  C3H8O,2propanol
  srd 01  CNCOCN           g 7/88  C3O2             g tpis  *C4            
  g 7/01  C4H2,butadiyne   g 8/00  C4H4,1,3-cyclo-  n10/92  C4H6,butadiene 
  n10/93  C4H6,1butyne     n10/93  C4H6,2butyne     g 8/00  C4H6,cyclo-    
  n 4/88  C4H8,1-butene    n 4/88  C4H8,cis2-buten  n 4/88  C4H8,tr2-butene
  n 4/88  C4H8,isobutene   g 8/00  C4H8,cyclo-      g10/00  (CH3COOH)2     
  n10/84  C4H9,n-butyl     n10/84  C4H9,i-butyl     g 1/93  C4H9,s-butyl   
  g 1/93  C4H9,t-butyl     g12/00  C4H10,n-butane   g 8/00  C4H10,isobutane
  g 6/01  C4N2             g 8/00  *C5              g 5/90  C5H6,1,3cyclo- 
  g 1/93  C5H8,cyclo-      n 4/87  C5H10,1-pentene  g 2/01  C5H10,cyclo-   
  n10/84  C5H11,pentyl     g 1/93  C5H11,t-pentyl   n10/85  C5H12,n-pentane
  n10/85  C5H12,i-pentane  n10/85  CH3C(CH3)2CH3    g 2/93  C6H2           
  g11/00  C6H5,phenyl      g 8/00  C6H5O,phenoxy    g 8/00  C6H6           
  g 8/00  C6H5OH,phenol    g 1/93  C6H10,cyclo-     n 4/87  C6H12,1-hexene 
  g 6/90  C6H12,cyclo-     n10/83  C6H13,n-hexyl    g 6/01  C6H14,n-hexane 
  g 7/01  C7H7,benzyl      g 1/93  C7H8             g12/00  C7H8O,cresol-mx
  n 4/87  C7H14,1-heptene  n10/83  C7H15,n-heptyl   n10/85  C7H16,n-heptane
  n10/85  C7H16,2-methylh  n 4/89  C8H8,styrene     n10/86  C8H10,ethylbenz
  n 4/87  C8H16,1-octene   n10/83  C8H17,n-octyl    n 4/85  C8H18,n-octane 
  n 4/85  C8H18,isooctane  n10/83  C9H19,n-nonyl    g 3/01  C10H8,naphthale
  n10/83  C10H21,n-decyl   g 8/00  C12H9,o-bipheny  g 8/00  C12H10,biphenyl
  g 6/97  *H               g 6/01  HCN              g 1/01  HCO            
  tpis89  HCCN             g 6/01  HCCO             g 6/01  HNC            
  g 7/00  HNCO             g10/01  HNO              tpis89  HNO2           
  g 5/99  HNO3             g 4/02  HO2              tpis78  *H2            
  g 5/01  HCHO,formaldehy  g 6/01  HCOOH            g 8/89  H2O            
  g 6/99  H2O2             g 6/01  (HCOOH)2         g 5/97  *N             
  g 6/01  NCO              g 4/99  *NH              g 3/01  NH2            
  tpis89  NH3              tpis89  NH2OH            tpis89  *NO            
  g 4/99  NO2              j12/64  NO3              tpis78  *N2            
  g 6/01  NCN              g 5/99  N2H2             tpis89  NH2NO2         
  g 4/99  N2H4             g 4/99  N2O              g 4/99  N2O3           
  tpis89  N2O4             g 4/99  N2O5             tpis89  N3             
  g 4/99  N3H              g 5/97  *O               g 4/02  *OH            
  tpis89  *O2              g 8/01  O3               n 4/83  C(gr)          
  n 4/83  C(gr)            n 4/83  C(gr)            g11/99  H2O(cr)        
  g 8/01  H2O(L)           g 8/01  H2O(L)         

 O/F =   3.948459

                       EFFECTIVE FUEL     EFFECTIVE OXIDANT        MIXTURE
 ENTHALPY                  h(2)/R              h(1)/R               h0/R
 (KG-MOL)(K)/KG       -0.55928246E+03      0.12911409E+03     -0.99992243E+01

 KG-FORM.WT./KG             bi(2)               bi(1)               b0i
  *C                   0.62334580E-01      0.00000000E+00      0.12596765E-01
  *H                   0.24933832E+00      0.00000000E+00      0.50387061E-01
  *N                   0.00000000E+00      0.26311773E-01      0.20994609E-01
  *O                   0.00000000E+00      0.39467660E-01      0.31491913E-01

 POINT ITN      T            C           H           N           O 

   1   20    3203.795     -13.766      -9.294     -12.976     -17.139

   2    3    3189.291     -13.982      -9.412     -13.094     -17.177

 Pinf/Pt = 1.756476
   3    4    2945.335     -13.974      -9.544     -13.223     -17.801

 Pinf/Pt = 1.763816
   3    2    2943.527     -13.974      -9.545     -13.224     -17.806

 Pinf/Pt = 1.763878
   3    1    2943.512     -13.974      -9.545     -13.224     -17.806

   4    4    2968.110     -13.979      -9.532     -13.211     -17.737

   4    2    2956.248     -13.977      -9.538     -13.218     -17.770

   4    2    2949.994     -13.975      -9.542     -13.221     -17.788

   4    2    2946.782     -13.975      -9.543     -13.222     -17.797

   4    2    2945.154     -13.974      -9.544     -13.223     -17.801

   2    2    3191.470     -13.951      -9.394     -13.077     -17.171

 Pinf/Pt = 1.756728
   3    4    2946.597     -13.941      -9.526     -13.205     -17.797

 Pinf/Pt = 1.764076
   3    2    2944.781     -13.940      -9.527     -13.206     -17.802

 Pinf/Pt = 1.764138
   3    1    2944.766     -13.940      -9.527     -13.206     -17.802

   4    4    2969.451     -13.946      -9.515     -13.194     -17.733

   4    2    2957.546     -13.943      -9.521     -13.200     -17.766

   4    2    2951.271     -13.942      -9.524     -13.203     -17.784

   4    2    2948.048     -13.941      -9.526     -13.205     -17.793

   4    2    2946.414     -13.941      -9.527     -13.206     -17.798

   2    1    3191.467     -13.951      -9.394     -13.077     -17.171

 Pinf/Pt = 1.756727
   3    4    2946.595     -13.941      -9.526     -13.205     -17.797

 Pinf/Pt = 1.764076
   3    2    2944.780     -13.941      -9.527     -13.206     -17.802

 Pinf/Pt = 1.764137
   3    1    2944.765     -13.941      -9.527     -13.206     -17.802

   4    4    2969.449     -13.946      -9.515     -13.194     -17.733

   4    2    2957.545     -13.944      -9.521     -13.200     -17.766

   4    2    2951.269     -13.942      -9.524     -13.203     -17.784

   4    2    2948.046     -13.941      -9.526     -13.205     -17.793

   4    2    2946.413     -13.941      -9.527     -13.206     -17.798

 END OF CHAMBER ITERATIONS
   4    5    1590.809     -11.375     -10.155     -13.860     -25.668


 WARNING!!  ASSIGNED subae/at =  25.00000 IS NOT PERMITTED TO BE GREATER
 THAN ac/at =  1.00001.  POINT OMITTED (ROCKET)





              THEORETICAL ROCKET PERFORMANCE ASSUMING EQUILIBRIUM

            COMPOSITION DURING EXPANSION FROM FINITE AREA COMBUSTOR

 Pin =   986.3 PSIA
 Ac/At =  1.0000      Pinj/Pinf =  1.239446
 CASE =                

             REACTANT                       MOLES         ENERGY      TEMP
                                                         KJ/KG-MOL      K
 FUEL        CH4                          0.6000000    -74600.000    298.150
 OXIDANT     N2O                          0.5000000     81600.000    298.150
 OXIDANT     O2                           0.5000000        -0.000    298.150

 O/F=    3.94846  %FUEL= 20.208310  R,EQ.RATIO= 1.600000  PHI,EQ.RATIO= 1.600000

                 INJECTOR  COMB END  THROAT     EXIT
 Pinj/P            1.0000   2.1783   2.1866   68.000
 P, BAR            68.000   31.217   31.099   1.0000
 T, K             3203.80  2946.41  2944.76  1590.81
 RHO, KG/CU M    5.2114 0 2.6154 0 2.6070 0 1.5657-1
 H, KJ/KG         -83.139  -786.34  -790.86 -3875.74
 U, KJ/KG        -1387.97 -1979.94 -1983.76 -4514.44
 G, KJ/KG        -38727.7 -36584.1 -36568.6 -23203.4
 S, KJ/(KG)(K)    12.0621  12.1496  12.1496  12.1496

 M, (1/n)          20.415   20.524   20.525   20.709
 (dLV/dLP)t      -1.00749 -1.00464 -1.00462 -1.00001
 (dLV/dLT)p        1.1446   1.0963   1.0959   1.0002
 Cp, KJ/(KG)(K)    3.3628   3.0089   3.0061   2.0461
 GAMMAs            1.1781   1.1865   1.1866   1.2443
 SON VEL,M/SEC     1239.8   1190.0   1189.7    891.5
 MACH NUMBER        0.000    0.997    1.000    3.089

 PERFORMANCE PARAMETERS

 Ae/At                      1.0000   1.0000   7.1929
 CSTAR, M/SEC               1768.8   1768.8   1768.8
 CF                         0.6705   0.6726   1.5570
 Ivac, M/SEC                2192.4   2192.4   2986.0
 Isp, M/SEC                 1185.9   1189.7   2754.1


 MOLE FRACTIONS

 *CO              0.20848  0.20681  0.20679  0.17620
 *CO2             0.04866  0.05173  0.05175  0.08467
 *H               0.01454  0.01016  0.01013  0.00002
 HCO              0.00001  0.00001  0.00001  0.00000
 *H2              0.17790  0.18022  0.18024  0.21509
 H2O              0.32362  0.32856  0.32859  0.30663
 NH2              0.00001  0.00000  0.00000  0.00000
 NH3              0.00001  0.00001  0.00001  0.00000
 *NO              0.00128  0.00062  0.00062  0.00000
 *N2              0.21364  0.21513  0.21514  0.21739
 *O               0.00050  0.00020  0.00020  0.00000
 *OH              0.01096  0.00640  0.00637  0.00000
 *O2              0.00035  0.00015  0.00015  0.00000

  * THERMODYNAMIC PROPERTIES FITTED TO 20000.K

    PRODUCTS WHICH WERE CONSIDERED BUT WHOSE MOLE FRACTIONS
    WERE LESS THAN 5.000000E-06 FOR ALL ASSIGNED CONDITIONS

 *C              *CH             CH2             CH3             CH2OH          
 CH3O            CH4             CH3OH           CH3OOH          *CN            
 CNN             COOH            *C2             C2H             C2H2,acetylene 
 C2H2,vinylidene CH2CO,ketene    O(CH)2O         HO(CO)2OH       C2H3,vinyl     
 CH3CN           CH3CO,acetyl    C2H4            C2H4O,ethylen-o CH3CHO,ethanal 
 CH3COOH         OHCH2COOH       C2H5            C2H6            CH3N2CH3       
 C2H5OH          CH3OCH3         CH3O2CH3        CCN             CNC            
 OCCN            C2N2            C2O             *C3             C3H3,1-propynl 
 C3H3,2-propynl  C3H4,allene     C3H4,propyne    C3H4,cyclo-     C3H5,allyl     
 C3H6,propylene  C3H6,cyclo-     C3H6O,propylox  C3H6O,acetone   C3H6O,propanal 
 C3H7,n-propyl   C3H7,i-propyl   C3H8            C3H8O,1propanol C3H8O,2propanol
 CNCOCN          C3O2            *C4             C4H2,butadiyne  C4H4,1,3-cyclo-
 C4H6,butadiene  C4H6,1butyne    C4H6,2butyne    C4H6,cyclo-     C4H8,1-butene  
 C4H8,cis2-buten C4H8,tr2-butene C4H8,isobutene  C4H8,cyclo-     (CH3COOH)2     
 C4H9,n-butyl    C4H9,i-butyl    C4H9,s-butyl    C4H9,t-butyl    C4H10,n-butane 
 C4H10,isobutane C4N2            *C5             C5H6,1,3cyclo-  C5H8,cyclo-    
 C5H10,1-pentene C5H10,cyclo-    C5H11,pentyl    C5H11,t-pentyl  C5H12,n-pentane
 C5H12,i-pentane CH3C(CH3)2CH3   C6H2            C6H5,phenyl     C6H5O,phenoxy  
 C6H6            C6H5OH,phenol   C6H10,cyclo-    C6H12,1-hexene  C6H12,cyclo-   
 C6H13,n-hexyl   C6H14,n-hexane  C7H7,benzyl     C7H8            C7H8O,cresol-mx
 C7H14,1-heptene C7H15,n-heptyl  C7H16,n-heptane C7H16,2-methylh C8H8,styrene   
 C8H10,ethylbenz C8H16,1-octene  C8H17,n-octyl   C8H18,n-octane  C8H18,isooctane
 C9H19,n-nonyl   C10H8,naphthale C10H21,n-decyl  C12H9,o-bipheny C12H10,biphenyl
 HCN             HCCN            HCCO            HNC             HNCO           
 HNO             HNO2            HNO3            HO2             HCHO,formaldehy
 HCOOH           H2O2            (HCOOH)2        *N              NCO            
 *NH             NH2OH           NO2             NO3             NCN            
 N2H2            NH2NO2          N2H4            N2O             N2O3           
 N2O4            N2O5            N3              N3H             O3             
 C(gr)           H2O(cr)         H2O(L)         






 WARNING!!  ASSIGNED pip =   0.00000 IS NOT PERMITTED
 TO BE LESS THAN  Pinj/Pc =  2.17828. POINT OMITTED (ROCKET)

 AN ASSIGNED AREA RATIO IS < 1 (ROCKET)





              THEORETICAL ROCKET PERFORMANCE ASSUMING EQUILIBRIUM

            COMPOSITION DURING EXPANSION FROM FINITE AREA COMBUSTOR

 Pin =   986.3 PSIA
 Ac/At =  1.0000      Pinj/Pinf =  1.239446
 CASE =                

             REACTANT                       MOLES         ENERGY      TEMP
                                                         KJ/KG-MOL      K
 FUEL        CH4                          0.6000000    -74600.000    298.150
 OXIDANT     N2O                          0.5000000     81600.000    298.150
 OXIDANT     O2                           0.5000000        -0.000    298.150

 O/F=    3.94846  %FUEL= 20.208310  R,EQ.RATIO= 1.600000  PHI,EQ.RATIO= 1.600000

                 INJECTOR  COMB END  THROAT
 Pinj/P            1.0000   2.1783   2.1866
 P, BAR            68.000   31.217   31.099
 T, K             3203.80  2946.41  2944.76
 RHO, KG/CU M    5.2114 0 2.6154 0 2.6070 0
 H, KJ/KG         -83.139  -786.34  -790.86
 U, KJ/KG        -1387.97 -1979.94 -1983.76
 G, KJ/KG        -38727.7 -36584.1 -36568.6
 S, KJ/(KG)(K)    12.0621  12.1496  12.1496

 M, (1/n)          20.415   20.524   20.525
 (dLV/dLP)t      -1.00749 -1.00464 -1.00462
 (dLV/dLT)p        1.1446   1.0963   1.0959
 Cp, KJ/(KG)(K)    3.3628   3.0089   3.0061
 GAMMAs            1.1781   1.1865   1.1866
 SON VEL,M/SEC     1239.8   1190.0   1189.7
 MACH NUMBER        0.000    0.997    1.000

 PERFORMANCE PARAMETERS

 Ae/At                      1.0000   1.0000
 CSTAR, M/SEC               1768.8   1768.8
 CF                         0.6705   0.6726
 Ivac, M/SEC                2192.4   2192.4
 Isp, M/SEC                 1185.9   1189.7


 MOLE FRACTIONS

 *CO              0.20848  0.20681  0.20679
 *CO2             0.04866  0.05173  0.05175
 *H               0.01454  0.01016  0.01013
 HCO              0.00001  0.00001  0.00001
 *H2              0.17790  0.18022  0.18024
 H2O              0.32362  0.32856  0.32859
 NH2              0.00001  0.00000  0.00000
 NH3              0.00001  0.00001  0.00001
 *NO              0.00128  0.00062  0.00062
 *N2              0.21364  0.21513  0.21514
 *O               0.00050  0.00020  0.00020
 *OH              0.01096  0.00640  0.00637
 *O2              0.00035  0.00015  0.00015

  * THERMODYNAMIC PROPERTIES FITTED TO 20000.K

    PRODUCTS WHICH WERE CONSIDERED BUT WHOSE MOLE FRACTIONS
    WERE LESS THAN 5.000000E-06 FOR ALL ASSIGNED CONDITIONS

 *C              *CH             CH2             CH3             CH2OH          
 CH3O            CH4             CH3OH           CH3OOH          *CN            
 CNN             COOH            *C2             C2H             C2H2,acetylene 
 C2H2,vinylidene CH2CO,ketene    O(CH)2O         HO(CO)2OH       C2H3,vinyl     
 CH3CN           CH3CO,acetyl    C2H4            C2H4O,ethylen-o CH3CHO,ethanal 
 CH3COOH         OHCH2COOH       C2H5            C2H6            CH3N2CH3       
 C2H5OH          CH3OCH3         CH3O2CH3        CCN             CNC            
 OCCN            C2N2            C2O             *C3             C3H3,1-propynl 
 C3H3,2-propynl  C3H4,allene     C3H4,propyne    C3H4,cyclo-     C3H5,allyl     
 C3H6,propylene  C3H6,cyclo-     C3H6O,propylox  C3H6O,acetone   C3H6O,propanal 
 C3H7,n-propyl   C3H7,i-propyl   C3H8            C3H8O,1propanol C3H8O,2propanol
 CNCOCN          C3O2            *C4             C4H2,butadiyne  C4H4,1,3-cyclo-
 C4H6,butadiene  C4H6,1butyne    C4H6,2butyne    C4H6,cyclo-     C4H8,1-butene  
 C4H8,cis2-buten C4H8,tr2-butene C4H8,isobutene  C4H8,cyclo-     (CH3COOH)2     
 C4H9,n-butyl    C4H9,i-butyl    C4H9,s-butyl    C4H9,t-butyl    C4H10,n-butane 
 C4H10,isobutane C4N2            *C5             C5H6,1,3cyclo-  C5H8,cyclo-    
 C5H10,1-pentene C5H10,cyclo-    C5H11,pentyl    C5H11,t-pentyl  C5H12,n-pentane
 C5H12,i-pentane CH3C(CH3)2CH3   C6H2            C6H5,phenyl     C6H5O,phenoxy  
 C6H6            C6H5OH,phenol   C6H10,cyclo-    C6H12,1-hexene  C6H12,cyclo-   
 C6H13,n-hexyl   C6H14,n-hexane  C7H7,benzyl     C7H8            C7H8O,cresol-mx
 C7H14,1-heptene C7H15,n-heptyl  C7H16,n-heptane C7H16,2-methylh C8H8,styrene   
 C8H10,ethylbenz C8H16,1-octene  C8H17,n-octyl   C8H18,n-octane  C8H18,isooctane
 C9H19,n-nonyl   C10H8,naphthale C10H21,n-decyl  C12H9,o-bipheny C12H10,biphenyl
 HCN             HCCN            HCCO            HNC             HNCO           
 HNO             HNO2            HNO3            HO2             HCHO,formaldehy
 HCOOH           H2O2            (HCOOH)2        *N              NCO            
 *NH             NH2OH           NO2             NO3             NCN            
 N2H2            NH2NO2          N2H4            N2O             N2O3           
 N2O4            N2O5            N3              N3H             O3             
 C(gr)           H2O(cr)         H2O(L)         






 WARNING!!  ASSIGNED pip =   0.00000 IS NOT PERMITTED
 TO BE LESS THAN  Pinj/Pc =  2.17828. POINT OMITTED (ROCKET)

 AN ASSIGNED AREA RATIO IS < 1 (ROCKET)





              THEORETICAL ROCKET PERFORMANCE ASSUMING EQUILIBRIUM

            COMPOSITION DURING EXPANSION FROM FINITE AREA COMBUSTOR

 Pin =   986.3 PSIA
 Ac/At =  1.0000      Pinj/Pinf =  1.239446
 CASE =                

             REACTANT                       MOLES         ENERGY      TEMP
                                                         KJ/KG-MOL      K
 FUEL        CH4                          0.6000000    -74600.000    298.150
 OXIDANT     N2O                          0.5000000     81600.000    298.150
 OXIDANT     O2                           0.5000000        -0.000    298.150

 O/F=    3.94846  %FUEL= 20.208310  R,EQ.RATIO= 1.600000  PHI,EQ.RATIO= 1.600000

                 INJECTOR  COMB END  THROAT
 Pinj/P            1.0000   2.1783   2.1866
 P, BAR            68.000   31.217   31.099
 T, K             3203.80  2946.41  2944.76
 RHO, KG/CU M    5.2114 0 2.6154 0 2.6070 0
 H, KJ/KG         -83.139  -786.34  -790.86
 U, KJ/KG        -1387.97 -1979.94 -1983.76
 G, KJ/KG        -38727.7 -36584.1 -36568.6
 S, KJ/(KG)(K)    12.0621  12.1496  12.1496

 M, (1/n)          20.415   20.524   20.525
 (dLV/dLP)t      -1.00749 -1.00464 -1.00462
 (dLV/dLT)p        1.1446   1.0963   1.0959
 Cp, KJ/(KG)(K)    3.3628   3.0089   3.0061
 GAMMAs            1.1781   1.1865   1.1866
 SON VEL,M/SEC     1239.8   1190.0   1189.7
 MACH NUMBER        0.000    0.997    1.000

 PERFORMANCE PARAMETERS

 Ae/At                      1.0000   1.0000
 CSTAR, M/SEC               1768.8   1768.8
 CF                         0.6705   0.6726
 Ivac, M/SEC                2192.4   2192.4
 Isp, M/SEC                 1185.9   1189.7


 MOLE FRACTIONS

 *CO              0.20848  0.20681  0.20679
 *CO2             0.04866  0.05173  0.05175
 *H               0.01454  0.01016  0.01013
 HCO              0.00001  0.00001  0.00001
 *H2              0.17790  0.18022  0.18024
 H2O              0.32362  0.32856  0.32859
 NH2              0.00001  0.00000  0.00000
 NH3              0.00001  0.00001  0.00001
 *NO              0.00128  0.00062  0.00062
 *N2              0.21364  0.21513  0.21514
 *O               0.00050  0.00020  0.00020
 *OH              0.01096  0.00640  0.00637
 *O2              0.00035  0.00015  0.00015

  * THERMODYNAMIC PROPERTIES FITTED TO 20000.K

    PRODUCTS WHICH WERE CONSIDERED BUT WHOSE MOLE FRACTIONS
    WERE LESS THAN 5.000000E-06 FOR ALL ASSIGNED CONDITIONS

 *C              *CH             CH2             CH3             CH2OH          
 CH3O            CH4             CH3OH           CH3OOH          *CN            
 CNN             COOH            *C2             C2H             C2H2,acetylene 
 C2H2,vinylidene CH2CO,ketene    O(CH)2O         HO(CO)2OH       C2H3,vinyl     
 CH3CN           CH3CO,acetyl    C2H4            C2H4O,ethylen-o CH3CHO,ethanal 
 CH3COOH         OHCH2COOH       C2H5            C2H6            CH3N2CH3       
 C2H5OH          CH3OCH3         CH3O2CH3        CCN             CNC            
 OCCN            C2N2            C2O             *C3             C3H3,1-propynl 
 C3H3,2-propynl  C3H4,allene     C3H4,propyne    C3H4,cyclo-     C3H5,allyl     
 C3H6,propylene  C3H6,cyclo-     C3H6O,propylox  C3H6O,acetone   C3H6O,propanal 
 C3H7,n-propyl   C3H7,i-propyl   C3H8            C3H8O,1propanol C3H8O,2propanol
 CNCOCN          C3O2            *C4             C4H2,butadiyne  C4H4,1,3-cyclo-
 C4H6,butadiene  C4H6,1butyne    C4H6,2butyne    C4H6,cyclo-     C4H8,1-butene  
 C4H8,cis2-buten C4H8,tr2-butene C4H8,isobutene  C4H8,cyclo-     (CH3COOH)2     
 C4H9,n-butyl    C4H9,i-butyl    C4H9,s-butyl    C4H9,t-butyl    C4H10,n-butane 
 C4H10,isobutane C4N2            *C5             C5H6,1,3cyclo-  C5H8,cyclo-    
 C5H10,1-pentene C5H10,cyclo-    C5H11,pentyl    C5H11,t-pentyl  C5H12,n-pentane
 C5H12,i-pentane CH3C(CH3)2CH3   C6H2            C6H5,phenyl     C6H5O,phenoxy  
 C6H6            C6H5OH,phenol   C6H10,cyclo-    C6H12,1-hexene  C6H12,cyclo-   
 C6H13,n-hexyl   C6H14,n-hexane  C7H7,benzyl     C7H8            C7H8O,cresol-mx
 C7H14,1-heptene C7H15,n-heptyl  C7H16,n-heptane C7H16,2-methylh C8H8,styrene   
 C8H10,ethylbenz C8H16,1-octene  C8H17,n-octyl   C8H18,n-octane  C8H18,isooctane
 C9H19,n-nonyl   C10H8,naphthale C10H21,n-decyl  C12H9,o-bipheny C12H10,biphenyl
 HCN             HCCN            HCCO            HNC             HNCO           
 HNO             HNO2            HNO3            HO2             HCHO,formaldehy
 HCOOH           H2O2            (HCOOH)2        *N              NCO            
 *NH             NH2OH           NO2             NO3             NCN            
 N2H2            NH2NO2          N2H4            N2O             N2O3           
 N2O4            N2O5            N3              N3H             O3             
 C(gr)           H2O(cr)         H2O(L)         






 WARNING!!  ASSIGNED pip =   0.00000 IS NOT PERMITTED
 TO BE LESS THAN  Pinj/Pc =  2.17828. POINT OMITTED (ROCKET)

 AN ASSIGNED AREA RATIO IS < 1 (ROCKET)





              THEORETICAL ROCKET PERFORMANCE ASSUMING EQUILIBRIUM

            COMPOSITION DURING EXPANSION FROM FINITE AREA COMBUSTOR

 Pin =   986.3 PSIA
 Ac/At =  1.0000      Pinj/Pinf =  1.239446
 CASE =                

             REACTANT                       MOLES         ENERGY      TEMP
                                                         KJ/KG-MOL      K
 FUEL        CH4                          0.6000000    -74600.000    298.150
 OXIDANT     N2O                          0.5000000     81600.000    298.150
 OXIDANT     O2                           0.5000000        -0.000    298.150

 O/F=    3.94846  %FUEL= 20.208310  R,EQ.RATIO= 1.600000  PHI,EQ.RATIO= 1.600000

                 INJECTOR  COMB END  THROAT
 Pinj/P            1.0000   2.1783   2.1866
 P, BAR            68.000   31.217   31.099
 T, K             3203.80  2946.41  2944.76
 RHO, KG/CU M    5.2114 0 2.6154 0 2.6070 0
 H, KJ/KG         -83.139  -786.34  -790.86
 U, KJ/KG        -1387.97 -1979.94 -1983.76
 G, KJ/KG        -38727.7 -36584.1 -36568.6
 S, KJ/(KG)(K)    12.0621  12.1496  12.1496

 M, (1/n)          20.415   20.524   20.525
 (dLV/dLP)t      -1.00749 -1.00464 -1.00462
 (dLV/dLT)p        1.1446   1.0963   1.0959
 Cp, KJ/(KG)(K)    3.3628   3.0089   3.0061
 GAMMAs            1.1781   1.1865   1.1866
 SON VEL,M/SEC     1239.8   1190.0   1189.7
 MACH NUMBER        0.000    0.997    1.000

 PERFORMANCE PARAMETERS

 Ae/At                      1.0000   1.0000
 CSTAR, M/SEC               1768.8   1768.8
 CF                         0.6705   0.6726
 Ivac, M/SEC                2192.4   2192.4
 Isp, M/SEC                 1185.9   1189.7


 MOLE FRACTIONS

 *CO              0.20848  0.20681  0.20679
 *CO2             0.04866  0.05173  0.05175
 *H               0.01454  0.01016  0.01013
 HCO              0.00001  0.00001  0.00001
 *H2              0.17790  0.18022  0.18024
 H2O              0.32362  0.32856  0.32859
 NH2              0.00001  0.00000  0.00000
 NH3              0.00001  0.00001  0.00001
 *NO              0.00128  0.00062  0.00062
 *N2              0.21364  0.21513  0.21514
 *O               0.00050  0.00020  0.00020
 *OH              0.01096  0.00640  0.00637
 *O2              0.00035  0.00015  0.00015

  * THERMODYNAMIC PROPERTIES FITTED TO 20000.K

    PRODUCTS WHICH WERE CONSIDERED BUT WHOSE MOLE FRACTIONS
    WERE LESS THAN 5.000000E-06 FOR ALL ASSIGNED CONDITIONS

 *C              *CH             CH2             CH3             CH2OH          
 CH3O            CH4             CH3OH           CH3OOH          *CN            
 CNN             COOH            *C2             C2H             C2H2,acetylene 
 C2H2,vinylidene CH2CO,ketene    O(CH)2O         HO(CO)2OH       C2H3,vinyl     
 CH3CN           CH3CO,acetyl    C2H4            C2H4O,ethylen-o CH3CHO,ethanal 
 CH3COOH         OHCH2COOH       C2H5            C2H6            CH3N2CH3       
 C2H5OH          CH3OCH3         CH3O2CH3        CCN             CNC            
 OCCN            C2N2            C2O             *C3             C3H3,1-propynl 
 C3H3,2-propynl  C3H4,allene     C3H4,propyne    C3H4,cyclo-     C3H5,allyl     
 C3H6,propylene  C3H6,cyclo-     C3H6O,propylox  C3H6O,acetone   C3H6O,propanal 
 C3H7,n-propyl   C3H7,i-propyl   C3H8            C3H8O,1propanol C3H8O,2propanol
 CNCOCN          C3O2            *C4             C4H2,butadiyne  C4H4,1,3-cyclo-
 C4H6,butadiene  C4H6,1butyne    C4H6,2butyne    C4H6,cyclo-     C4H8,1-butene  
 C4H8,cis2-buten C4H8,tr2-butene C4H8,isobutene  C4H8,cyclo-     (CH3COOH)2     
 C4H9,n-butyl    C4H9,i-butyl    C4H9,s-butyl    C4H9,t-butyl    C4H10,n-butane 
 C4H10,isobutane C4N2            *C5             C5H6,1,3cyclo-  C5H8,cyclo-    
 C5H10,1-pentene C5H10,cyclo-    C5H11,pentyl    C5H11,t-pentyl  C5H12,n-pentane
 C5H12,i-pentane CH3C(CH3)2CH3   C6H2            C6H5,phenyl     C6H5O,phenoxy  
 C6H6            C6H5OH,phenol   C6H10,cyclo-    C6H12,1-hexene  C6H12,cyclo-   
 C6H13,n-hexyl   C6H14,n-hexane  C7H7,benzyl     C7H8            C7H8O,cresol-mx
 C7H14,1-heptene C7H15,n-heptyl  C7H16,n-heptane C7H16,2-methylh C8H8,styrene   
 C8H10,ethylbenz C8H16,1-octene  C8H17,n-octyl   C8H18,n-octane  C8H18,isooctane
 C9H19,n-nonyl   C10H8,naphthale C10H21,n-decyl  C12H9,o-bipheny C12H10,biphenyl
 HCN             HCCN            HCCO            HNC             HNCO           
 HNO             HNO2            HNO3            HO2             HCHO,formaldehy
 HCOOH           H2O2            (HCOOH)2        *N              NCO            
 *NH             NH2OH           NO2             NO3             NCN            
 N2H2            NH2NO2          N2H4            N2O             N2O3           
 N2O4            N2O5            N3              N3H             O3             
 C(gr)           H2O(cr)         H2O(L)         






 WARNING!!  ASSIGNED pip =   0.00000 IS NOT PERMITTED
 TO BE LESS THAN  Pinj/Pc =  2.17828. POINT OMITTED (ROCKET)

 AN ASSIGNED AREA RATIO IS < 1 (ROCKET)





              THEORETICAL ROCKET PERFORMANCE ASSUMING EQUILIBRIUM

            COMPOSITION DURING EXPANSION FROM FINITE AREA COMBUSTOR

 Pin =   986.3 PSIA
 Ac/At =  1.0000      Pinj/Pinf =  1.239446
 CASE =                

             REACTANT                       MOLES         ENERGY      TEMP
                                                         KJ/KG-MOL      K
 FUEL        CH4                          0.6000000    -74600.000    298.150
 OXIDANT     N2O                          0.5000000     81600.000    298.150
 OXIDANT     O2                           0.5000000        -0.000    298.150

 O/F=    3.94846  %FUEL= 20.208310  R,EQ.RATIO= 1.600000  PHI,EQ.RATIO= 1.600000

                 INJECTOR  COMB END  THROAT
 Pinj/P            1.0000   2.1783   2.1866
 P, BAR            68.000   31.217   31.099
 T, K             3203.80  2946.41  2944.76
 RHO, KG/CU M    5.2114 0 2.6154 0 2.6070 0
 H, KJ/KG         -83.139  -786.34  -790.86
 U, KJ/KG        -1387.97 -1979.94 -1983.76
 G, KJ/KG        -38727.7 -36584.1 -36568.6
 S, KJ/(KG)(K)    12.0621  12.1496  12.1496

 M, (1/n)          20.415   20.524   20.525
 (dLV/dLP)t      -1.00749 -1.00464 -1.00462
 (dLV/dLT)p        1.1446   1.0963   1.0959
 Cp, KJ/(KG)(K)    3.3628   3.0089   3.0061
 GAMMAs            1.1781   1.1865   1.1866
 SON VEL,M/SEC     1239.8   1190.0   1189.7
 MACH NUMBER        0.000    0.997    1.000

 PERFORMANCE PARAMETERS

 Ae/At                      1.0000   1.0000
 CSTAR, M/SEC               1768.8   1768.8
 CF                         0.6705   0.6726
 Ivac, M/SEC                2192.4   2192.4
 Isp, M/SEC                 1185.9   1189.7


 MOLE FRACTIONS

 *CO              0.20848  0.20681  0.20679
 *CO2             0.04866  0.05173  0.05175
 *H               0.01454  0.01016  0.01013
 HCO              0.00001  0.00001  0.00001
 *H2              0.17790  0.18022  0.18024
 H2O              0.32362  0.32856  0.32859
 NH2              0.00001  0.00000  0.00000
 NH3              0.00001  0.00001  0.00001
 *NO              0.00128  0.00062  0.00062
 *N2              0.21364  0.21513  0.21514
 *O               0.00050  0.00020  0.00020
 *OH              0.01096  0.00640  0.00637
 *O2              0.00035  0.00015  0.00015

  * THERMODYNAMIC PROPERTIES FITTED TO 20000.K

    PRODUCTS WHICH WERE CONSIDERED BUT WHOSE MOLE FRACTIONS
    WERE LESS THAN 5.000000E-06 FOR ALL ASSIGNED CONDITIONS

 *C              *CH             CH2             CH3             CH2OH          
 CH3O            CH4             CH3OH           CH3OOH          *CN            
 CNN             COOH            *C2             C2H             C2H2,acetylene 
 C2H2,vinylidene CH2CO,ketene    O(CH)2O         HO(CO)2OH       C2H3,vinyl     
 CH3CN           CH3CO,acetyl    C2H4            C2H4O,ethylen-o CH3CHO,ethanal 
 CH3COOH         OHCH2COOH       C2H5            C2H6            CH3N2CH3       
 C2H5OH          CH3OCH3         CH3O2CH3        CCN             CNC            
 OCCN            C2N2            C2O             *C3             C3H3,1-propynl 
 C3H3,2-propynl  C3H4,allene     C3H4,propyne    C3H4,cyclo-     C3H5,allyl     
 C3H6,propylene  C3H6,cyclo-     C3H6O,propylox  C3H6O,acetone   C3H6O,propanal 
 C3H7,n-propyl   C3H7,i-propyl   C3H8            C3H8O,1propanol C3H8O,2propanol
 CNCOCN          C3O2            *C4             C4H2,butadiyne  C4H4,1,3-cyclo-
 C4H6,butadiene  C4H6,1butyne    C4H6,2butyne    C4H6,cyclo-     C4H8,1-butene  
 C4H8,cis2-buten C4H8,tr2-butene C4H8,isobutene  C4H8,cyclo-     (CH3COOH)2     
 C4H9,n-butyl    C4H9,i-butyl    C4H9,s-butyl    C4H9,t-butyl    C4H10,n-butane 
 C4H10,isobutane C4N2            *C5             C5H6,1,3cyclo-  C5H8,cyclo-    
 C5H10,1-pentene C5H10,cyclo-    C5H11,pentyl    C5H11,t-pentyl  C5H12,n-pentane
 C5H12,i-pentane CH3C(CH3)2CH3   C6H2            C6H5,phenyl     C6H5O,phenoxy  
 C6H6            C6H5OH,phenol   C6H10,cyclo-    C6H12,1-hexene  C6H12,cyclo-   
 C6H13,n-hexyl   C6H14,n-hexane  C7H7,benzyl     C7H8            C7H8O,cresol-mx
 C7H14,1-heptene C7H15,n-heptyl  C7H16,n-heptane C7H16,2-methylh C8H8,styrene   
 C8H10,ethylbenz C8H16,1-octene  C8H17,n-octyl   C8H18,n-octane  C8H18,isooctane
 C9H19,n-nonyl   C10H8,naphthale C10H21,n-decyl  C12H9,o-bipheny C12H10,biphenyl
 HCN             HCCN            HCCO            HNC             HNCO           
 HNO             HNO2            HNO3            HO2             HCHO,formaldehy
 HCOOH           H2O2            (HCOOH)2        *N              NCO            
 *NH             NH2OH           NO2             NO3             NCN            
 N2H2            NH2NO2          N2H4            N2O             N2O3           
 N2O4            N2O5            N3              N3H             O3             
 C(gr)           H2O(cr)         H2O(L)         






 WARNING!!  ASSIGNED pip =   0.00000 IS NOT PERMITTED
 TO BE LESS THAN  Pinj/Pc =  2.17828. POINT OMITTED (ROCKET)

 AN ASSIGNED AREA RATIO IS < 1 (ROCKET)





              THEORETICAL ROCKET PERFORMANCE ASSUMING EQUILIBRIUM

            COMPOSITION DURING EXPANSION FROM FINITE AREA COMBUSTOR

 Pin =   986.3 PSIA
 Ac/At =  1.0000      Pinj/Pinf =  1.239446
 CASE =                

             REACTANT                       MOLES         ENERGY      TEMP
                                                         KJ/KG-MOL      K
 FUEL        CH4                          0.6000000    -74600.000    298.150
 OXIDANT     N2O                          0.5000000     81600.000    298.150
 OXIDANT     O2                           0.5000000        -0.000    298.150

 O/F=    3.94846  %FUEL= 20.208310  R,EQ.RATIO= 1.600000  PHI,EQ.RATIO= 1.600000

                 INJECTOR  COMB END  THROAT
 Pinj/P            1.0000   2.1783   2.1866
 P, BAR            68.000   31.217   31.099
 T, K             3203.80  2946.41  2944.76
 RHO, KG/CU M    5.2114 0 2.6154 0 2.6070 0
 H, KJ/KG         -83.139  -786.34  -790.86
 U, KJ/KG        -1387.97 -1979.94 -1983.76
 G, KJ/KG        -38727.7 -36584.1 -36568.6
 S, KJ/(KG)(K)    12.0621  12.1496  12.1496

 M, (1/n)          20.415   20.524   20.525
 (dLV/dLP)t      -1.00749 -1.00464 -1.00462
 (dLV/dLT)p        1.1446   1.0963   1.0959
 Cp, KJ/(KG)(K)    3.3628   3.0089   3.0061
 GAMMAs            1.1781   1.1865   1.1866
 SON VEL,M/SEC     1239.8   1190.0   1189.7
 MACH NUMBER        0.000    0.997    1.000

 PERFORMANCE PARAMETERS

 Ae/At                      1.0000   1.0000
 CSTAR, M/SEC               1768.8   1768.8
 CF                         0.6705   0.6726
 Ivac, M/SEC                2192.4   2192.4
 Isp, M/SEC                 1185.9   1189.7


 MOLE FRACTIONS

 *CO              0.20848  0.20681  0.20679
 *CO2             0.04866  0.05173  0.05175
 *H               0.01454  0.01016  0.01013
 HCO              0.00001  0.00001  0.00001
 *H2              0.17790  0.18022  0.18024
 H2O              0.32362  0.32856  0.32859
 NH2              0.00001  0.00000  0.00000
 NH3              0.00001  0.00001  0.00001
 *NO              0.00128  0.00062  0.00062
 *N2              0.21364  0.21513  0.21514
 *O               0.00050  0.00020  0.00020
 *OH              0.01096  0.00640  0.00637
 *O2              0.00035  0.00015  0.00015

  * THERMODYNAMIC PROPERTIES FITTED TO 20000.K

    PRODUCTS WHICH WERE CONSIDERED BUT WHOSE MOLE FRACTIONS
    WERE LESS THAN 5.000000E-06 FOR ALL ASSIGNED CONDITIONS

 *C              *CH             CH2             CH3             CH2OH          
 CH3O            CH4             CH3OH           CH3OOH          *CN            
 CNN             COOH            *C2             C2H             C2H2,acetylene 
 C2H2,vinylidene CH2CO,ketene    O(CH)2O         HO(CO)2OH       C2H3,vinyl     
 CH3CN           CH3CO,acetyl    C2H4            C2H4O,ethylen-o CH3CHO,ethanal 
 CH3COOH         OHCH2COOH       C2H5            C2H6            CH3N2CH3       
 C2H5OH          CH3OCH3         CH3O2CH3        CCN             CNC            
 OCCN            C2N2            C2O             *C3             C3H3,1-propynl 
 C3H3,2-propynl  C3H4,allene     C3H4,propyne    C3H4,cyclo-     C3H5,allyl     
 C3H6,propylene  C3H6,cyclo-     C3H6O,propylox  C3H6O,acetone   C3H6O,propanal 
 C3H7,n-propyl   C3H7,i-propyl   C3H8            C3H8O,1propanol C3H8O,2propanol
 CNCOCN          C3O2            *C4             C4H2,butadiyne  C4H4,1,3-cyclo-
 C4H6,butadiene  C4H6,1butyne    C4H6,2butyne    C4H6,cyclo-     C4H8,1-butene  
 C4H8,cis2-buten C4H8,tr2-butene C4H8,isobutene  C4H8,cyclo-     (CH3COOH)2     
 C4H9,n-butyl    C4H9,i-butyl    C4H9,s-butyl    C4H9,t-butyl    C4H10,n-butane 
 C4H10,isobutane C4N2            *C5             C5H6,1,3cyclo-  C5H8,cyclo-    
 C5H10,1-pentene C5H10,cyclo-    C5H11,pentyl    C5H11,t-pentyl  C5H12,n-pentane
 C5H12,i-pentane CH3C(CH3)2CH3   C6H2            C6H5,phenyl     C6H5O,phenoxy  
 C6H6            C6H5OH,phenol   C6H10,cyclo-    C6H12,1-hexene  C6H12,cyclo-   
 C6H13,n-hexyl   C6H14,n-hexane  C7H7,benzyl     C7H8            C7H8O,cresol-mx
 C7H14,1-heptene C7H15,n-heptyl  C7H16,n-heptane C7H16,2-methylh C8H8,styrene   
 C8H10,ethylbenz C8H16,1-octene  C8H17,n-octyl   C8H18,n-octane  C8H18,isooctane
 C9H19,n-nonyl   C10H8,naphthale C10H21,n-decyl  C12H9,o-bipheny C12H10,biphenyl
 HCN             HCCN            HCCO            HNC             HNCO           
 HNO             HNO2            HNO3            HO2             HCHO,formaldehy
 HCOOH           H2O2            (HCOOH)2        *N              NCO            
 *NH             NH2OH           NO2             NO3             NCN            
 N2H2            NH2NO2          N2H4            N2O             N2O3           
 N2O4            N2O5            N3              N3H             O3             
 C(gr)           H2O(cr)         H2O(L)         






 WARNING!!  ASSIGNED pip =   0.00000 IS NOT PERMITTED
 TO BE LESS THAN  Pinj/Pc =  2.17828. POINT OMITTED (ROCKET)

 AN ASSIGNED AREA RATIO IS < 1 (ROCKET)





              THEORETICAL ROCKET PERFORMANCE ASSUMING EQUILIBRIUM

            COMPOSITION DURING EXPANSION FROM FINITE AREA COMBUSTOR

 Pin =   986.3 PSIA
 Ac/At =  1.0000      Pinj/Pinf =  1.239446
 CASE =                

             REACTANT                       MOLES         ENERGY      TEMP
                                                         KJ/KG-MOL      K
 FUEL        CH4                          0.6000000    -74600.000    298.150
 OXIDANT     N2O                          0.5000000     81600.000    298.150
 OXIDANT     O2                           0.5000000        -0.000    298.150

 O/F=    3.94846  %FUEL= 20.208310  R,EQ.RATIO= 1.600000  PHI,EQ.RATIO= 1.600000

                 INJECTOR  COMB END  THROAT
 Pinj/P            1.0000   2.1783   2.1866
 P, BAR            68.000   31.217   31.099
 T, K             3203.80  2946.41  2944.76
 RHO, KG/CU M    5.2114 0 2.6154 0 2.6070 0
 H, KJ/KG         -83.139  -786.34  -790.86
 U, KJ/KG        -1387.97 -1979.94 -1983.76
 G, KJ/KG        -38727.7 -36584.1 -36568.6
 S, KJ/(KG)(K)    12.0621  12.1496  12.1496

 M, (1/n)          20.415   20.524   20.525
 (dLV/dLP)t      -1.00749 -1.00464 -1.00462
 (dLV/dLT)p        1.1446   1.0963   1.0959
 Cp, KJ/(KG)(K)    3.3628   3.0089   3.0061
 GAMMAs            1.1781   1.1865   1.1866
 SON VEL,M/SEC     1239.8   1190.0   1189.7
 MACH NUMBER        0.000    0.997    1.000

 PERFORMANCE PARAMETERS

 Ae/At                      1.0000   1.0000
 CSTAR, M/SEC               1768.8   1768.8
 CF                         0.6705   0.6726
 Ivac, M/SEC                2192.4   2192.4
 Isp, M/SEC                 1185.9   1189.7


 MOLE FRACTIONS

 *CO              0.20848  0.20681  0.20679
 *CO2             0.04866  0.05173  0.05175
 *H               0.01454  0.01016  0.01013
 HCO              0.00001  0.00001  0.00001
 *H2              0.17790  0.18022  0.18024
 H2O              0.32362  0.32856  0.32859
 NH2              0.00001  0.00000  0.00000
 NH3              0.00001  0.00001  0.00001
 *NO              0.00128  0.00062  0.00062
 *N2              0.21364  0.21513  0.21514
 *O               0.00050  0.00020  0.00020
 *OH              0.01096  0.00640  0.00637
 *O2              0.00035  0.00015  0.00015

  * THERMODYNAMIC PROPERTIES FITTED TO 20000.K

    PRODUCTS WHICH WERE CONSIDERED BUT WHOSE MOLE FRACTIONS
    WERE LESS THAN 5.000000E-06 FOR ALL ASSIGNED CONDITIONS

 *C              *CH             CH2             CH3             CH2OH          
 CH3O            CH4             CH3OH           CH3OOH          *CN            
 CNN             COOH            *C2             C2H             C2H2,acetylene 
 C2H2,vinylidene CH2CO,ketene    O(CH)2O         HO(CO)2OH       C2H3,vinyl     
 CH3CN           CH3CO,acetyl    C2H4            C2H4O,ethylen-o CH3CHO,ethanal 
 CH3COOH         OHCH2COOH       C2H5            C2H6            CH3N2CH3       
 C2H5OH          CH3OCH3         CH3O2CH3        CCN             CNC            
 OCCN            C2N2            C2O             *C3             C3H3,1-propynl 
 C3H3,2-propynl  C3H4,allene     C3H4,propyne    C3H4,cyclo-     C3H5,allyl     
 C3H6,propylene  C3H6,cyclo-     C3H6O,propylox  C3H6O,acetone   C3H6O,propanal 
 C3H7,n-propyl   C3H7,i-propyl   C3H8            C3H8O,1propanol C3H8O,2propanol
 CNCOCN          C3O2            *C4             C4H2,butadiyne  C4H4,1,3-cyclo-
 C4H6,butadiene  C4H6,1butyne    C4H6,2butyne    C4H6,cyclo-     C4H8,1-butene  
 C4H8,cis2-buten C4H8,tr2-butene C4H8,isobutene  C4H8,cyclo-     (CH3COOH)2     
 C4H9,n-butyl    C4H9,i-butyl    C4H9,s-butyl    C4H9,t-butyl    C4H10,n-butane 
 C4H10,isobutane C4N2            *C5             C5H6,1,3cyclo-  C5H8,cyclo-    
 C5H10,1-pentene C5H10,cyclo-    C5H11,pentyl    C5H11,t-pentyl  C5H12,n-pentane
 C5H12,i-pentane CH3C(CH3)2CH3   C6H2            C6H5,phenyl     C6H5O,phenoxy  
 C6H6            C6H5OH,phenol   C6H10,cyclo-    C6H12,1-hexene  C6H12,cyclo-   
 C6H13,n-hexyl   C6H14,n-hexane  C7H7,benzyl     C7H8            C7H8O,cresol-mx
 C7H14,1-heptene C7H15,n-heptyl  C7H16,n-heptane C7H16,2-methylh C8H8,styrene   
 C8H10,ethylbenz C8H16,1-octene  C8H17,n-octyl   C8H18,n-octane  C8H18,isooctane
 C9H19,n-nonyl   C10H8,naphthale C10H21,n-decyl  C12H9,o-bipheny C12H10,biphenyl
 HCN             HCCN            HCCO            HNC             HNCO           
 HNO             HNO2            HNO3            HO2             HCHO,formaldehy
 HCOOH           H2O2            (HCOOH)2        *N              NCO            
 *NH             NH2OH           NO2             NO3             NCN            
 N2H2            NH2NO2          N2H4            N2O             N2O3           
 N2O4            N2O5            N3              N3H             O3             
 C(gr)           H2O(cr)         H2O(L)         






 WARNING!!  ASSIGNED pip =   0.00000 IS NOT PERMITTED
 TO BE LESS THAN  Pinj/Pc =  2.17828. POINT OMITTED (ROCKET)

 AN ASSIGNED AREA RATIO IS < 1 (ROCKET)





              THEORETICAL ROCKET PERFORMANCE ASSUMING EQUILIBRIUM

            COMPOSITION DURING EXPANSION FROM FINITE AREA COMBUSTOR

 Pin =   986.3 PSIA
 Ac/At =  1.0000      Pinj/Pinf =  1.239446
 CASE =                

             REACTANT                       MOLES         ENERGY      TEMP
                                                         KJ/KG-MOL      K
 FUEL        CH4                          0.6000000    -74600.000    298.150
 OXIDANT     N2O                          0.5000000     81600.000    298.150
 OXIDANT     O2                           0.5000000        -0.000    298.150

 O/F=    3.94846  %FUEL= 20.208310  R,EQ.RATIO= 1.600000  PHI,EQ.RATIO= 1.600000

                 INJECTOR  COMB END  THROAT
 Pinj/P            1.0000   2.1783   2.1866
 P, BAR            68.000   31.217   31.099
 T, K             3203.80  2946.41  2944.76
 RHO, KG/CU M    5.2114 0 2.6154 0 2.6070 0
 H, KJ/KG         -83.139  -786.34  -790.86
 U, KJ/KG        -1387.97 -1979.94 -1983.76
 G, KJ/KG        -38727.7 -36584.1 -36568.6
 S, KJ/(KG)(K)    12.0621  12.1496  12.1496

 M, (1/n)          20.415   20.524   20.525
 (dLV/dLP)t      -1.00749 -1.00464 -1.00462
 (dLV/dLT)p        1.1446   1.0963   1.0959
 Cp, KJ/(KG)(K)    3.3628   3.0089   3.0061
 GAMMAs            1.1781   1.1865   1.1866
 SON VEL,M/SEC     1239.8   1190.0   1189.7
 MACH NUMBER        0.000    0.997    1.000

 PERFORMANCE PARAMETERS

 Ae/At                      1.0000   1.0000
 CSTAR, M/SEC               1768.8   1768.8
 CF                         0.6705   0.6726
 Ivac, M/SEC                2192.4   2192.4
 Isp, M/SEC                 1185.9   1189.7


 MOLE FRACTIONS

 *CO              0.20848  0.20681  0.20679
 *CO2             0.04866  0.05173  0.05175
 *H               0.01454  0.01016  0.01013
 HCO              0.00001  0.00001  0.00001
 *H2              0.17790  0.18022  0.18024
 H2O              0.32362  0.32856  0.32859
 NH2              0.00001  0.00000  0.00000
 NH3              0.00001  0.00001  0.00001
 *NO              0.00128  0.00062  0.00062
 *N2              0.21364  0.21513  0.21514
 *O               0.00050  0.00020  0.00020
 *OH              0.01096  0.00640  0.00637
 *O2              0.00035  0.00015  0.00015

  * THERMODYNAMIC PROPERTIES FITTED TO 20000.K

    PRODUCTS WHICH WERE CONSIDERED BUT WHOSE MOLE FRACTIONS
    WERE LESS THAN 5.000000E-06 FOR ALL ASSIGNED CONDITIONS

 *C              *CH             CH2             CH3             CH2OH          
 CH3O            CH4             CH3OH           CH3OOH          *CN            
 CNN             COOH            *C2             C2H             C2H2,acetylene 
 C2H2,vinylidene CH2CO,ketene    O(CH)2O         HO(CO)2OH       C2H3,vinyl     
 CH3CN           CH3CO,acetyl    C2H4            C2H4O,ethylen-o CH3CHO,ethanal 
 CH3COOH         OHCH2COOH       C2H5            C2H6            CH3N2CH3       
 C2H5OH          CH3OCH3         CH3O2CH3        CCN             CNC            
 OCCN            C2N2            C2O             *C3             C3H3,1-propynl 
 C3H3,2-propynl  C3H4,allene     C3H4,propyne    C3H4,cyclo-     C3H5,allyl     
 C3H6,propylene  C3H6,cyclo-     C3H6O,propylox  C3H6O,acetone   C3H6O,propanal 
 C3H7,n-propyl   C3H7,i-propyl   C3H8            C3H8O,1propanol C3H8O,2propanol
 CNCOCN          C3O2            *C4             C4H2,butadiyne  C4H4,1,3-cyclo-
 C4H6,butadiene  C4H6,1butyne    C4H6,2butyne    C4H6,cyclo-     C4H8,1-butene  
 C4H8,cis2-buten C4H8,tr2-butene C4H8,isobutene  C4H8,cyclo-     (CH3COOH)2     
 C4H9,n-butyl    C4H9,i-butyl    C4H9,s-butyl    C4H9,t-butyl    C4H10,n-butane 
 C4H10,isobutane C4N2            *C5             C5H6,1,3cyclo-  C5H8,cyclo-    
 C5H10,1-pentene C5H10,cyclo-    C5H11,pentyl    C5H11,t-pentyl  C5H12,n-pentane
 C5H12,i-pentane CH3C(CH3)2CH3   C6H2            C6H5,phenyl     C6H5O,phenoxy  
 C6H6            C6H5OH,phenol   C6H10,cyclo-    C6H12,1-hexene  C6H12,cyclo-   
 C6H13,n-hexyl   C6H14,n-hexane  C7H7,benzyl     C7H8            C7H8O,cresol-mx
 C7H14,1-heptene C7H15,n-heptyl  C7H16,n-heptane C7H16,2-methylh C8H8,styrene   
 C8H10,ethylbenz C8H16,1-octene  C8H17,n-octyl   C8H18,n-octane  C8H18,isooctane
 C9H19,n-nonyl   C10H8,naphthale C10H21,n-decyl  C12H9,o-bipheny C12H10,biphenyl
 HCN             HCCN            HCCO            HNC             HNCO           
 HNO             HNO2            HNO3            HO2             HCHO,formaldehy
 HCOOH           H2O2            (HCOOH)2        *N              NCO            
 *NH             NH2OH           NO2             NO3             NCN            
 N2H2            NH2NO2          N2H4            N2O             N2O3           
 N2O4            N2O5            N3              N3H             O3             
 C(gr)           H2O(cr)         H2O(L)         






 WARNING!!  ASSIGNED pip =   0.00000 IS NOT PERMITTED
 TO BE LESS THAN  Pinj/Pc =  2.17828. POINT OMITTED (ROCKET)

 AN ASSIGNED AREA RATIO IS < 1 (ROCKET)





              THEORETICAL ROCKET PERFORMANCE ASSUMING EQUILIBRIUM

            COMPOSITION DURING EXPANSION FROM FINITE AREA COMBUSTOR

 Pin =   986.3 PSIA
 Ac/At =  1.0000      Pinj/Pinf =  1.239446
 CASE =                

             REACTANT                       MOLES         ENERGY      TEMP
                                                         KJ/KG-MOL      K
 FUEL        CH4                          0.6000000    -74600.000    298.150
 OXIDANT     N2O                          0.5000000     81600.000    298.150
 OXIDANT     O2                           0.5000000        -0.000    298.150

 O/F=    3.94846  %FUEL= 20.208310  R,EQ.RATIO= 1.600000  PHI,EQ.RATIO= 1.600000

                 INJECTOR  COMB END  THROAT
 Pinj/P            1.0000   2.1783   2.1866
 P, BAR            68.000   31.217   31.099
 T, K             3203.80  2946.41  2944.76
 RHO, KG/CU M    5.2114 0 2.6154 0 2.6070 0
 H, KJ/KG         -83.139  -786.34  -790.86
 U, KJ/KG        -1387.97 -1979.94 -1983.76
 G, KJ/KG        -38727.7 -36584.1 -36568.6
 S, KJ/(KG)(K)    12.0621  12.1496  12.1496

 M, (1/n)          20.415   20.524   20.525
 (dLV/dLP)t      -1.00749 -1.00464 -1.00462
 (dLV/dLT)p        1.1446   1.0963   1.0959
 Cp, KJ/(KG)(K)    3.3628   3.0089   3.0061
 GAMMAs            1.1781   1.1865   1.1866
 SON VEL,M/SEC     1239.8   1190.0   1189.7
 MACH NUMBER        0.000    0.997    1.000

 PERFORMANCE PARAMETERS

 Ae/At                      1.0000   1.0000
 CSTAR, M/SEC               1768.8   1768.8
 CF                         0.6705   0.6726
 Ivac, M/SEC                2192.4   2192.4
 Isp, M/SEC                 1185.9   1189.7


 MOLE FRACTIONS

 *CO              0.20848  0.20681  0.20679
 *CO2             0.04866  0.05173  0.05175
 *H               0.01454  0.01016  0.01013
 HCO              0.00001  0.00001  0.00001
 *H2              0.17790  0.18022  0.18024
 H2O              0.32362  0.32856  0.32859
 NH2              0.00001  0.00000  0.00000
 NH3              0.00001  0.00001  0.00001
 *NO              0.00128  0.00062  0.00062
 *N2              0.21364  0.21513  0.21514
 *O               0.00050  0.00020  0.00020
 *OH              0.01096  0.00640  0.00637
 *O2              0.00035  0.00015  0.00015

  * THERMODYNAMIC PROPERTIES FITTED TO 20000.K

    PRODUCTS WHICH WERE CONSIDERED BUT WHOSE MOLE FRACTIONS
    WERE LESS THAN 5.000000E-06 FOR ALL ASSIGNED CONDITIONS

 *C              *CH             CH2             CH3             CH2OH          
 CH3O            CH4             CH3OH           CH3OOH          *CN            
 CNN             COOH            *C2             C2H             C2H2,acetylene 
 C2H2,vinylidene CH2CO,ketene    O(CH)2O         HO(CO)2OH       C2H3,vinyl     
 CH3CN           CH3CO,acetyl    C2H4            C2H4O,ethylen-o CH3CHO,ethanal 
 CH3COOH         OHCH2COOH       C2H5            C2H6            CH3N2CH3       
 C2H5OH          CH3OCH3         CH3O2CH3        CCN             CNC            
 OCCN            C2N2            C2O             *C3             C3H3,1-propynl 
 C3H3,2-propynl  C3H4,allene     C3H4,propyne    C3H4,cyclo-     C3H5,allyl     
 C3H6,propylene  C3H6,cyclo-     C3H6O,propylox  C3H6O,acetone   C3H6O,propanal 
 C3H7,n-propyl   C3H7,i-propyl   C3H8            C3H8O,1propanol C3H8O,2propanol
 CNCOCN          C3O2            *C4             C4H2,butadiyne  C4H4,1,3-cyclo-
 C4H6,butadiene  C4H6,1butyne    C4H6,2butyne    C4H6,cyclo-     C4H8,1-butene  
 C4H8,cis2-buten C4H8,tr2-butene C4H8,isobutene  C4H8,cyclo-     (CH3COOH)2     
 C4H9,n-butyl    C4H9,i-butyl    C4H9,s-butyl    C4H9,t-butyl    C4H10,n-butane 
 C4H10,isobutane C4N2            *C5             C5H6,1,3cyclo-  C5H8,cyclo-    
 C5H10,1-pentene C5H10,cyclo-    C5H11,pentyl    C5H11,t-pentyl  C5H12,n-pentane
 C5H12,i-pentane CH3C(CH3)2CH3   C6H2            C6H5,phenyl     C6H5O,phenoxy  
 C6H6            C6H5OH,phenol   C6H10,cyclo-    C6H12,1-hexene  C6H12,cyclo-   
 C6H13,n-hexyl   C6H14,n-hexane  C7H7,benzyl     C7H8            C7H8O,cresol-mx
 C7H14,1-heptene C7H15,n-heptyl  C7H16,n-heptane C7H16,2-methylh C8H8,styrene   
 C8H10,ethylbenz C8H16,1-octene  C8H17,n-octyl   C8H18,n-octane  C8H18,isooctane
 C9H19,n-nonyl   C10H8,naphthale C10H21,n-decyl  C12H9,o-bipheny C12H10,biphenyl
 HCN             HCCN            HCCO            HNC             HNCO           
 HNO             HNO2            HNO3            HO2             HCHO,formaldehy
 HCOOH           H2O2            (HCOOH)2        *N              NCO            
 *NH             NH2OH           NO2             NO3             NCN            
 N2H2            NH2NO2          N2H4            N2O             N2O3           
 N2O4            N2O5            N3              N3H             O3             
 C(gr)           H2O(cr)         H2O(L)         






 WARNING!!  ASSIGNED pip =   0.00000 IS NOT PERMITTED
 TO BE LESS THAN  Pinj/Pc =  2.17828. POINT OMITTED (ROCKET)

 AN ASSIGNED AREA RATIO IS < 1 (ROCKET)





              THEORETICAL ROCKET PERFORMANCE ASSUMING EQUILIBRIUM

            COMPOSITION DURING EXPANSION FROM FINITE AREA COMBUSTOR

 Pin =   986.3 PSIA
 Ac/At =  1.0000      Pinj/Pinf =  1.239446
 CASE =                

             REACTANT                       MOLES         ENERGY      TEMP
                                                         KJ/KG-MOL      K
 FUEL        CH4                          0.6000000    -74600.000    298.150
 OXIDANT     N2O                          0.5000000     81600.000    298.150
 OXIDANT     O2                           0.5000000        -0.000    298.150

 O/F=    3.94846  %FUEL= 20.208310  R,EQ.RATIO= 1.600000  PHI,EQ.RATIO= 1.600000

                 INJECTOR  COMB END  THROAT
 Pinj/P            1.0000   2.1783   2.1866
 P, BAR            68.000   31.217   31.099
 T, K             3203.80  2946.41  2944.76
 RHO, KG/CU M    5.2114 0 2.6154 0 2.6070 0
 H, KJ/KG         -83.139  -786.34  -790.86
 U, KJ/KG        -1387.97 -1979.94 -1983.76
 G, KJ/KG        -38727.7 -36584.1 -36568.6
 S, KJ/(KG)(K)    12.0621  12.1496  12.1496

 M, (1/n)          20.415   20.524   20.525
 (dLV/dLP)t      -1.00749 -1.00464 -1.00462
 (dLV/dLT)p        1.1446   1.0963   1.0959
 Cp, KJ/(KG)(K)    3.3628   3.0089   3.0061
 GAMMAs            1.1781   1.1865   1.1866
 SON VEL,M/SEC     1239.8   1190.0   1189.7
 MACH NUMBER        0.000    0.997    1.000

 PERFORMANCE PARAMETERS

 Ae/At                      1.0000   1.0000
 CSTAR, M/SEC               1768.8   1768.8
 CF                         0.6705   0.6726
 Ivac, M/SEC                2192.4   2192.4
 Isp, M/SEC                 1185.9   1189.7


 MOLE FRACTIONS

 *CO              0.20848  0.20681  0.20679
 *CO2             0.04866  0.05173  0.05175
 *H               0.01454  0.01016  0.01013
 HCO              0.00001  0.00001  0.00001
 *H2              0.17790  0.18022  0.18024
 H2O              0.32362  0.32856  0.32859
 NH2              0.00001  0.00000  0.00000
 NH3              0.00001  0.00001  0.00001
 *NO              0.00128  0.00062  0.00062
 *N2              0.21364  0.21513  0.21514
 *O               0.00050  0.00020  0.00020
 *OH              0.01096  0.00640  0.00637
 *O2              0.00035  0.00015  0.00015

  * THERMODYNAMIC PROPERTIES FITTED TO 20000.K

    PRODUCTS WHICH WERE CONSIDERED BUT WHOSE MOLE FRACTIONS
    WERE LESS THAN 5.000000E-06 FOR ALL ASSIGNED CONDITIONS

 *C              *CH             CH2             CH3             CH2OH          
 CH3O            CH4             CH3OH           CH3OOH          *CN            
 CNN             COOH            *C2             C2H             C2H2,acetylene 
 C2H2,vinylidene CH2CO,ketene    O(CH)2O         HO(CO)2OH       C2H3,vinyl     
 CH3CN           CH3CO,acetyl    C2H4            C2H4O,ethylen-o CH3CHO,ethanal 
 CH3COOH         OHCH2COOH       C2H5            C2H6            CH3N2CH3       
 C2H5OH          CH3OCH3         CH3O2CH3        CCN             CNC            
 OCCN            C2N2            C2O             *C3             C3H3,1-propynl 
 C3H3,2-propynl  C3H4,allene     C3H4,propyne    C3H4,cyclo-     C3H5,allyl     
 C3H6,propylene  C3H6,cyclo-     C3H6O,propylox  C3H6O,acetone   C3H6O,propanal 
 C3H7,n-propyl   C3H7,i-propyl   C3H8            C3H8O,1propanol C3H8O,2propanol
 CNCOCN          C3O2            *C4             C4H2,butadiyne  C4H4,1,3-cyclo-
 C4H6,butadiene  C4H6,1butyne    C4H6,2butyne    C4H6,cyclo-     C4H8,1-butene  
 C4H8,cis2-buten C4H8,tr2-butene C4H8,isobutene  C4H8,cyclo-     (CH3COOH)2     
 C4H9,n-butyl    C4H9,i-butyl    C4H9,s-butyl    C4H9,t-butyl    C4H10,n-butane 
 C4H10,isobutane C4N2            *C5             C5H6,1,3cyclo-  C5H8,cyclo-    
 C5H10,1-pentene C5H10,cyclo-    C5H11,pentyl    C5H11,t-pentyl  C5H12,n-pentane
 C5H12,i-pentane CH3C(CH3)2CH3   C6H2            C6H5,phenyl     C6H5O,phenoxy  
 C6H6            C6H5OH,phenol   C6H10,cyclo-    C6H12,1-hexene  C6H12,cyclo-   
 C6H13,n-hexyl   C6H14,n-hexane  C7H7,benzyl     C7H8            C7H8O,cresol-mx
 C7H14,1-heptene C7H15,n-heptyl  C7H16,n-heptane C7H16,2-methylh C8H8,styrene   
 C8H10,ethylbenz C8H16,1-octene  C8H17,n-octyl   C8H18,n-octane  C8H18,isooctane
 C9H19,n-nonyl   C10H8,naphthale C10H21,n-decyl  C12H9,o-bipheny C12H10,biphenyl
 HCN             HCCN            HCCO            HNC             HNCO           
 HNO             HNO2            HNO3            HO2             HCHO,formaldehy
 HCOOH           H2O2            (HCOOH)2        *N              NCO            
 *NH             NH2OH           NO2             NO3             NCN            
 N2H2            NH2NO2          N2H4            N2O             N2O3           
 N2O4            N2O5            N3              N3H             O3             
 C(gr)           H2O(cr)         H2O(L)         






 WARNING!!  ASSIGNED pip =   0.00000 IS NOT PERMITTED
 TO BE LESS THAN  Pinj/Pc =  2.17828. POINT OMITTED (ROCKET)

 AN ASSIGNED AREA RATIO IS < 1 (ROCKET)





              THEORETICAL ROCKET PERFORMANCE ASSUMING EQUILIBRIUM

            COMPOSITION DURING EXPANSION FROM FINITE AREA COMBUSTOR

 Pin =   986.3 PSIA
 Ac/At =  1.0000      Pinj/Pinf =  1.239446
 CASE =                

             REACTANT                       MOLES         ENERGY      TEMP
                                                         KJ/KG-MOL      K
 FUEL        CH4                          0.6000000    -74600.000    298.150
 OXIDANT     N2O                          0.5000000     81600.000    298.150
 OXIDANT     O2                           0.5000000        -0.000    298.150

 O/F=    3.94846  %FUEL= 20.208310  R,EQ.RATIO= 1.600000  PHI,EQ.RATIO= 1.600000

                 INJECTOR  COMB END  THROAT
 Pinj/P            1.0000   2.1783   2.1866
 P, BAR            68.000   31.217   31.099
 T, K             3203.80  2946.41  2944.76
 RHO, KG/CU M    5.2114 0 2.6154 0 2.6070 0
 H, KJ/KG         -83.139  -786.34  -790.86
 U, KJ/KG        -1387.97 -1979.94 -1983.76
 G, KJ/KG        -38727.7 -36584.1 -36568.6
 S, KJ/(KG)(K)    12.0621  12.1496  12.1496

 M, (1/n)          20.415   20.524   20.525
 (dLV/dLP)t      -1.00749 -1.00464 -1.00462
 (dLV/dLT)p        1.1446   1.0963   1.0959
 Cp, KJ/(KG)(K)    3.3628   3.0089   3.0061
 GAMMAs            1.1781   1.1865   1.1866
 SON VEL,M/SEC     1239.8   1190.0   1189.7
 MACH NUMBER        0.000    0.997    1.000

 PERFORMANCE PARAMETERS

 Ae/At                      1.0000   1.0000
 CSTAR, M/SEC               1768.8   1768.8
 CF                         0.6705   0.6726
 Ivac, M/SEC                2192.4   2192.4
 Isp, M/SEC                 1185.9   1189.7


 MOLE FRACTIONS

 *CO              0.20848  0.20681  0.20679
 *CO2             0.04866  0.05173  0.05175
 *H               0.01454  0.01016  0.01013
 HCO              0.00001  0.00001  0.00001
 *H2              0.17790  0.18022  0.18024
 H2O              0.32362  0.32856  0.32859
 NH2              0.00001  0.00000  0.00000
 NH3              0.00001  0.00001  0.00001
 *NO              0.00128  0.00062  0.00062
 *N2              0.21364  0.21513  0.21514
 *O               0.00050  0.00020  0.00020
 *OH              0.01096  0.00640  0.00637
 *O2              0.00035  0.00015  0.00015

  * THERMODYNAMIC PROPERTIES FITTED TO 20000.K

    PRODUCTS WHICH WERE CONSIDERED BUT WHOSE MOLE FRACTIONS
    WERE LESS THAN 5.000000E-06 FOR ALL ASSIGNED CONDITIONS

 *C              *CH             CH2             CH3             CH2OH          
 CH3O            CH4             CH3OH           CH3OOH          *CN            
 CNN             COOH            *C2             C2H             C2H2,acetylene 
 C2H2,vinylidene CH2CO,ketene    O(CH)2O         HO(CO)2OH       C2H3,vinyl     
 CH3CN           CH3CO,acetyl    C2H4            C2H4O,ethylen-o CH3CHO,ethanal 
 CH3COOH         OHCH2COOH       C2H5            C2H6            CH3N2CH3       
 C2H5OH          CH3OCH3         CH3O2CH3        CCN             CNC            
 OCCN            C2N2            C2O             *C3             C3H3,1-propynl 
 C3H3,2-propynl  C3H4,allene     C3H4,propyne    C3H4,cyclo-     C3H5,allyl     
 C3H6,propylene  C3H6,cyclo-     C3H6O,propylox  C3H6O,acetone   C3H6O,propanal 
 C3H7,n-propyl   C3H7,i-propyl   C3H8            C3H8O,1propanol C3H8O,2propanol
 CNCOCN          C3O2            *C4             C4H2,butadiyne  C4H4,1,3-cyclo-
 C4H6,butadiene  C4H6,1butyne    C4H6,2butyne    C4H6,cyclo-     C4H8,1-butene  
 C4H8,cis2-buten C4H8,tr2-butene C4H8,isobutene  C4H8,cyclo-     (CH3COOH)2     
 C4H9,n-butyl    C4H9,i-butyl    C4H9,s-butyl    C4H9,t-butyl    C4H10,n-butane 
 C4H10,isobutane C4N2            *C5             C5H6,1,3cyclo-  C5H8,cyclo-    
 C5H10,1-pentene C5H10,cyclo-    C5H11,pentyl    C5H11,t-pentyl  C5H12,n-pentane
 C5H12,i-pentane CH3C(CH3)2CH3   C6H2            C6H5,phenyl     C6H5O,phenoxy  
 C6H6            C6H5OH,phenol   C6H10,cyclo-    C6H12,1-hexene  C6H12,cyclo-   
 C6H13,n-hexyl   C6H14,n-hexane  C7H7,benzyl     C7H8            C7H8O,cresol-mx
 C7H14,1-heptene C7H15,n-heptyl  C7H16,n-heptane C7H16,2-methylh C8H8,styrene   
 C8H10,ethylbenz C8H16,1-octene  C8H17,n-octyl   C8H18,n-octane  C8H18,isooctane
 C9H19,n-nonyl   C10H8,naphthale C10H21,n-decyl  C12H9,o-bipheny C12H10,biphenyl
 HCN             HCCN            HCCO            HNC             HNCO           
 HNO             HNO2            HNO3            HO2             HCHO,formaldehy
 HCOOH           H2O2            (HCOOH)2        *N              NCO            
 *NH             NH2OH           NO2             NO3             NCN            
 N2H2            NH2NO2          N2H4            N2O             N2O3           
 N2O4            N2O5            N3              N3H             O3             
 C(gr)           H2O(cr)         H2O(L)         






 WARNING!!  ASSIGNED pip =   0.00000 IS NOT PERMITTED
 TO BE LESS THAN  Pinj/Pc =  2.17828. POINT OMITTED (ROCKET)

 AN ASSIGNED AREA RATIO IS < 1 (ROCKET)





              THEORETICAL ROCKET PERFORMANCE ASSUMING EQUILIBRIUM

            COMPOSITION DURING EXPANSION FROM FINITE AREA COMBUSTOR

 Pin =   986.3 PSIA
 Ac/At =  1.0000      Pinj/Pinf =  1.239446
 CASE =                

             REACTANT                       MOLES         ENERGY      TEMP
                                                         KJ/KG-MOL      K
 FUEL        CH4                          0.6000000    -74600.000    298.150
 OXIDANT     N2O                          0.5000000     81600.000    298.150
 OXIDANT     O2                           0.5000000        -0.000    298.150

 O/F=    3.94846  %FUEL= 20.208310  R,EQ.RATIO= 1.600000  PHI,EQ.RATIO= 1.600000

                 INJECTOR  COMB END  THROAT
 Pinj/P            1.0000   2.1783   2.1866
 P, BAR            68.000   31.217   31.099
 T, K             3203.80  2946.41  2944.76
 RHO, KG/CU M    5.2114 0 2.6154 0 2.6070 0
 H, KJ/KG         -83.139  -786.34  -790.86
 U, KJ/KG        -1387.97 -1979.94 -1983.76
 G, KJ/KG        -38727.7 -36584.1 -36568.6
 S, KJ/(KG)(K)    12.0621  12.1496  12.1496

 M, (1/n)          20.415   20.524   20.525
 (dLV/dLP)t      -1.00749 -1.00464 -1.00462
 (dLV/dLT)p        1.1446   1.0963   1.0959
 Cp, KJ/(KG)(K)    3.3628   3.0089   3.0061
 GAMMAs            1.1781   1.1865   1.1866
 SON VEL,M/SEC     1239.8   1190.0   1189.7
 MACH NUMBER        0.000    0.997    1.000

 PERFORMANCE PARAMETERS

 Ae/At                      1.0000   1.0000
 CSTAR, M/SEC               1768.8   1768.8
 CF                         0.6705   0.6726
 Ivac, M/SEC                2192.4   2192.4
 Isp, M/SEC                 1185.9   1189.7


 MOLE FRACTIONS

 *CO              0.20848  0.20681  0.20679
 *CO2             0.04866  0.05173  0.05175
 *H               0.01454  0.01016  0.01013
 HCO              0.00001  0.00001  0.00001
 *H2              0.17790  0.18022  0.18024
 H2O              0.32362  0.32856  0.32859
 NH2              0.00001  0.00000  0.00000
 NH3              0.00001  0.00001  0.00001
 *NO              0.00128  0.00062  0.00062
 *N2              0.21364  0.21513  0.21514
 *O               0.00050  0.00020  0.00020
 *OH              0.01096  0.00640  0.00637
 *O2              0.00035  0.00015  0.00015

  * THERMODYNAMIC PROPERTIES FITTED TO 20000.K

    PRODUCTS WHICH WERE CONSIDERED BUT WHOSE MOLE FRACTIONS
    WERE LESS THAN 5.000000E-06 FOR ALL ASSIGNED CONDITIONS

 *C              *CH             CH2             CH3             CH2OH          
 CH3O            CH4             CH3OH           CH3OOH          *CN            
 CNN             COOH            *C2             C2H             C2H2,acetylene 
 C2H2,vinylidene CH2CO,ketene    O(CH)2O         HO(CO)2OH       C2H3,vinyl     
 CH3CN           CH3CO,acetyl    C2H4            C2H4O,ethylen-o CH3CHO,ethanal 
 CH3COOH         OHCH2COOH       C2H5            C2H6            CH3N2CH3       
 C2H5OH          CH3OCH3         CH3O2CH3        CCN             CNC            
 OCCN            C2N2            C2O             *C3             C3H3,1-propynl 
 C3H3,2-propynl  C3H4,allene     C3H4,propyne    C3H4,cyclo-     C3H5,allyl     
 C3H6,propylene  C3H6,cyclo-     C3H6O,propylox  C3H6O,acetone   C3H6O,propanal 
 C3H7,n-propyl   C3H7,i-propyl   C3H8            C3H8O,1propanol C3H8O,2propanol
 CNCOCN          C3O2            *C4             C4H2,butadiyne  C4H4,1,3-cyclo-
 C4H6,butadiene  C4H6,1butyne    C4H6,2butyne    C4H6,cyclo-     C4H8,1-butene  
 C4H8,cis2-buten C4H8,tr2-butene C4H8,isobutene  C4H8,cyclo-     (CH3COOH)2     
 C4H9,n-butyl    C4H9,i-butyl    C4H9,s-butyl    C4H9,t-butyl    C4H10,n-butane 
 C4H10,isobutane C4N2            *C5             C5H6,1,3cyclo-  C5H8,cyclo-    
 C5H10,1-pentene C5H10,cyclo-    C5H11,pentyl    C5H11,t-pentyl  C5H12,n-pentane
 C5H12,i-pentane CH3C(CH3)2CH3   C6H2            C6H5,phenyl     C6H5O,phenoxy  
 C6H6            C6H5OH,phenol   C6H10,cyclo-    C6H12,1-hexene  C6H12,cyclo-   
 C6H13,n-hexyl   C6H14,n-hexane  C7H7,benzyl     C7H8            C7H8O,cresol-mx
 C7H14,1-heptene C7H15,n-heptyl  C7H16,n-heptane C7H16,2-methylh C8H8,styrene   
 C8H10,ethylbenz C8H16,1-octene  C8H17,n-octyl   C8H18,n-octane  C8H18,isooctane
 C9H19,n-nonyl   C10H8,naphthale C10H21,n-decyl  C12H9,o-bipheny C12H10,biphenyl
 HCN             HCCN            HCCO            HNC             HNCO           
 HNO             HNO2            HNO3            HO2             HCHO,formaldehy
 HCOOH           H2O2            (HCOOH)2        *N              NCO            
 *NH             NH2OH           NO2             NO3             NCN            
 N2H2            NH2NO2          N2H4            N2O             N2O3           
 N2O4            N2O5            N3              N3H             O3             
 C(gr)           H2O(cr)         H2O(L)         






 WARNING!!  ASSIGNED pip =   0.00000 IS NOT PERMITTED
 TO BE LESS THAN  Pinj/Pc =  2.17828. POINT OMITTED (ROCKET)

 AN ASSIGNED AREA RATIO IS < 1 (ROCKET)





              THEORETICAL ROCKET PERFORMANCE ASSUMING EQUILIBRIUM

            COMPOSITION DURING EXPANSION FROM FINITE AREA COMBUSTOR

 Pin =   986.3 PSIA
 Ac/At =  1.0000      Pinj/Pinf =  1.239446
 CASE =                

             REACTANT                       MOLES         ENERGY      TEMP
                                                         KJ/KG-MOL      K
 FUEL        CH4                          0.6000000    -74600.000    298.150
 OXIDANT     N2O                          0.5000000     81600.000    298.150
 OXIDANT     O2                           0.5000000        -0.000    298.150

 O/F=    3.94846  %FUEL= 20.208310  R,EQ.RATIO= 1.600000  PHI,EQ.RATIO= 1.600000

                 INJECTOR  COMB END  THROAT
 Pinj/P            1.0000   2.1783   2.1866
 P, BAR            68.000   31.217   31.099
 T, K             3203.80  2946.41  2944.76
 RHO, KG/CU M    5.2114 0 2.6154 0 2.6070 0
 H, KJ/KG         -83.139  -786.34  -790.86
 U, KJ/KG        -1387.97 -1979.94 -1983.76
 G, KJ/KG        -38727.7 -36584.1 -36568.6
 S, KJ/(KG)(K)    12.0621  12.1496  12.1496

 M, (1/n)          20.415   20.524   20.525
 (dLV/dLP)t      -1.00749 -1.00464 -1.00462
 (dLV/dLT)p        1.1446   1.0963   1.0959
 Cp, KJ/(KG)(K)    3.3628   3.0089   3.0061
 GAMMAs            1.1781   1.1865   1.1866
 SON VEL,M/SEC     1239.8   1190.0   1189.7
 MACH NUMBER        0.000    0.997    1.000

 PERFORMANCE PARAMETERS

 Ae/At                      1.0000   1.0000
 CSTAR, M/SEC               1768.8   1768.8
 CF                         0.6705   0.6726
 Ivac, M/SEC                2192.4   2192.4
 Isp, M/SEC                 1185.9   1189.7


 MOLE FRACTIONS

 *CO              0.20848  0.20681  0.20679
 *CO2             0.04866  0.05173  0.05175
 *H               0.01454  0.01016  0.01013
 HCO              0.00001  0.00001  0.00001
 *H2              0.17790  0.18022  0.18024
 H2O              0.32362  0.32856  0.32859
 NH2              0.00001  0.00000  0.00000
 NH3              0.00001  0.00001  0.00001
 *NO              0.00128  0.00062  0.00062
 *N2              0.21364  0.21513  0.21514
 *O               0.00050  0.00020  0.00020
 *OH              0.01096  0.00640  0.00637
 *O2              0.00035  0.00015  0.00015

  * THERMODYNAMIC PROPERTIES FITTED TO 20000.K

    PRODUCTS WHICH WERE CONSIDERED BUT WHOSE MOLE FRACTIONS
    WERE LESS THAN 5.000000E-06 FOR ALL ASSIGNED CONDITIONS

 *C              *CH             CH2             CH3             CH2OH          
 CH3O            CH4             CH3OH           CH3OOH          *CN            
 CNN             COOH            *C2             C2H             C2H2,acetylene 
 C2H2,vinylidene CH2CO,ketene    O(CH)2O         HO(CO)2OH       C2H3,vinyl     
 CH3CN           CH3CO,acetyl    C2H4            C2H4O,ethylen-o CH3CHO,ethanal 
 CH3COOH         OHCH2COOH       C2H5            C2H6            CH3N2CH3       
 C2H5OH          CH3OCH3         CH3O2CH3        CCN             CNC            
 OCCN            C2N2            C2O             *C3             C3H3,1-propynl 
 C3H3,2-propynl  C3H4,allene     C3H4,propyne    C3H4,cyclo-     C3H5,allyl     
 C3H6,propylene  C3H6,cyclo-     C3H6O,propylox  C3H6O,acetone   C3H6O,propanal 
 C3H7,n-propyl   C3H7,i-propyl   C3H8            C3H8O,1propanol C3H8O,2propanol
 CNCOCN          C3O2            *C4             C4H2,butadiyne  C4H4,1,3-cyclo-
 C4H6,butadiene  C4H6,1butyne    C4H6,2butyne    C4H6,cyclo-     C4H8,1-butene  
 C4H8,cis2-buten C4H8,tr2-butene C4H8,isobutene  C4H8,cyclo-     (CH3COOH)2     
 C4H9,n-butyl    C4H9,i-butyl    C4H9,s-butyl    C4H9,t-butyl    C4H10,n-butane 
 C4H10,isobutane C4N2            *C5             C5H6,1,3cyclo-  C5H8,cyclo-    
 C5H10,1-pentene C5H10,cyclo-    C5H11,pentyl    C5H11,t-pentyl  C5H12,n-pentane
 C5H12,i-pentane CH3C(CH3)2CH3   C6H2            C6H5,phenyl     C6H5O,phenoxy  
 C6H6            C6H5OH,phenol   C6H10,cyclo-    C6H12,1-hexene  C6H12,cyclo-   
 C6H13,n-hexyl   C6H14,n-hexane  C7H7,benzyl     C7H8            C7H8O,cresol-mx
 C7H14,1-heptene C7H15,n-heptyl  C7H16,n-heptane C7H16,2-methylh C8H8,styrene   
 C8H10,ethylbenz C8H16,1-octene  C8H17,n-octyl   C8H18,n-octane  C8H18,isooctane
 C9H19,n-nonyl   C10H8,naphthale C10H21,n-decyl  C12H9,o-bipheny C12H10,biphenyl
 HCN             HCCN            HCCO            HNC             HNCO           
 HNO             HNO2            HNO3            HO2             HCHO,formaldehy
 HCOOH           H2O2            (HCOOH)2        *N              NCO            
 *NH             NH2OH           NO2             NO3             NCN            
 N2H2            NH2NO2          N2H4            N2O             N2O3           
 N2O4            N2O5            N3              N3H             O3             
 C(gr)           H2O(cr)         H2O(L)         






 WARNING!!  ASSIGNED pip =   0.00000 IS NOT PERMITTED
 TO BE LESS THAN  Pinj/Pc =  2.17828. POINT OMITTED (ROCKET)

 AN ASSIGNED AREA RATIO IS < 1 (ROCKET)





              THEORETICAL ROCKET PERFORMANCE ASSUMING EQUILIBRIUM

            COMPOSITION DURING EXPANSION FROM FINITE AREA COMBUSTOR

 Pin =   986.3 PSIA
 Ac/At =  1.0000      Pinj/Pinf =  1.239446
 CASE =                

             REACTANT                       MOLES         ENERGY      TEMP
                                                         KJ/KG-MOL      K
 FUEL        CH4                          0.6000000    -74600.000    298.150
 OXIDANT     N2O                          0.5000000     81600.000    298.150
 OXIDANT     O2                           0.5000000        -0.000    298.150

 O/F=    3.94846  %FUEL= 20.208310  R,EQ.RATIO= 1.600000  PHI,EQ.RATIO= 1.600000

                 INJECTOR  COMB END  THROAT
 Pinj/P            1.0000   2.1783   2.1866
 P, BAR            68.000   31.217   31.099
 T, K             3203.80  2946.41  2944.76
 RHO, KG/CU M    5.2114 0 2.6154 0 2.6070 0
 H, KJ/KG         -83.139  -786.34  -790.86
 U, KJ/KG        -1387.97 -1979.94 -1983.76
 G, KJ/KG        -38727.7 -36584.1 -36568.6
 S, KJ/(KG)(K)    12.0621  12.1496  12.1496

 M, (1/n)          20.415   20.524   20.525
 (dLV/dLP)t      -1.00749 -1.00464 -1.00462
 (dLV/dLT)p        1.1446   1.0963   1.0959
 Cp, KJ/(KG)(K)    3.3628   3.0089   3.0061
 GAMMAs            1.1781   1.1865   1.1866
 SON VEL,M/SEC     1239.8   1190.0   1189.7
 MACH NUMBER        0.000    0.997    1.000

 PERFORMANCE PARAMETERS

 Ae/At                      1.0000   1.0000
 CSTAR, M/SEC               1768.8   1768.8
 CF                         0.6705   0.6726
 Ivac, M/SEC                2192.4   2192.4
 Isp, M/SEC                 1185.9   1189.7


 MOLE FRACTIONS

 *CO              0.20848  0.20681  0.20679
 *CO2             0.04866  0.05173  0.05175
 *H               0.01454  0.01016  0.01013
 HCO              0.00001  0.00001  0.00001
 *H2              0.17790  0.18022  0.18024
 H2O              0.32362  0.32856  0.32859
 NH2              0.00001  0.00000  0.00000
 NH3              0.00001  0.00001  0.00001
 *NO              0.00128  0.00062  0.00062
 *N2              0.21364  0.21513  0.21514
 *O               0.00050  0.00020  0.00020
 *OH              0.01096  0.00640  0.00637
 *O2              0.00035  0.00015  0.00015

  * THERMODYNAMIC PROPERTIES FITTED TO 20000.K

    PRODUCTS WHICH WERE CONSIDERED BUT WHOSE MOLE FRACTIONS
    WERE LESS THAN 5.000000E-06 FOR ALL ASSIGNED CONDITIONS

 *C              *CH             CH2             CH3             CH2OH          
 CH3O            CH4             CH3OH           CH3OOH          *CN            
 CNN             COOH            *C2             C2H             C2H2,acetylene 
 C2H2,vinylidene CH2CO,ketene    O(CH)2O         HO(CO)2OH       C2H3,vinyl     
 CH3CN           CH3CO,acetyl    C2H4            C2H4O,ethylen-o CH3CHO,ethanal 
 CH3COOH         OHCH2COOH       C2H5            C2H6            CH3N2CH3       
 C2H5OH          CH3OCH3         CH3O2CH3        CCN             CNC            
 OCCN            C2N2            C2O             *C3             C3H3,1-propynl 
 C3H3,2-propynl  C3H4,allene     C3H4,propyne    C3H4,cyclo-     C3H5,allyl     
 C3H6,propylene  C3H6,cyclo-     C3H6O,propylox  C3H6O,acetone   C3H6O,propanal 
 C3H7,n-propyl   C3H7,i-propyl   C3H8            C3H8O,1propanol C3H8O,2propanol
 CNCOCN          C3O2            *C4             C4H2,butadiyne  C4H4,1,3-cyclo-
 C4H6,butadiene  C4H6,1butyne    C4H6,2butyne    C4H6,cyclo-     C4H8,1-butene  
 C4H8,cis2-buten C4H8,tr2-butene C4H8,isobutene  C4H8,cyclo-     (CH3COOH)2     
 C4H9,n-butyl    C4H9,i-butyl    C4H9,s-butyl    C4H9,t-butyl    C4H10,n-butane 
 C4H10,isobutane C4N2            *C5             C5H6,1,3cyclo-  C5H8,cyclo-    
 C5H10,1-pentene C5H10,cyclo-    C5H11,pentyl    C5H11,t-pentyl  C5H12,n-pentane
 C5H12,i-pentane CH3C(CH3)2CH3   C6H2            C6H5,phenyl     C6H5O,phenoxy  
 C6H6            C6H5OH,phenol   C6H10,cyclo-    C6H12,1-hexene  C6H12,cyclo-   
 C6H13,n-hexyl   C6H14,n-hexane  C7H7,benzyl     C7H8            C7H8O,cresol-mx
 C7H14,1-heptene C7H15,n-heptyl  C7H16,n-heptane C7H16,2-methylh C8H8,styrene   
 C8H10,ethylbenz C8H16,1-octene  C8H17,n-octyl   C8H18,n-octane  C8H18,isooctane
 C9H19,n-nonyl   C10H8,naphthale C10H21,n-decyl  C12H9,o-bipheny C12H10,biphenyl
 HCN             HCCN            HCCO            HNC             HNCO           
 HNO             HNO2            HNO3            HO2             HCHO,formaldehy
 HCOOH           H2O2            (HCOOH)2        *N              NCO            
 *NH             NH2OH           NO2             NO3             NCN            
 N2H2            NH2NO2          N2H4            N2O             N2O3           
 N2O4            N2O5            N3              N3H             O3             
 C(gr)           H2O(cr)         H2O(L)         






 WARNING!!  ASSIGNED pip =   0.00000 IS NOT PERMITTED
 TO BE LESS THAN  Pinj/Pc =  2.17828. POINT OMITTED (ROCKET)

 AN ASSIGNED AREA RATIO IS < 1 (ROCKET)





              THEORETICAL ROCKET PERFORMANCE ASSUMING EQUILIBRIUM

            COMPOSITION DURING EXPANSION FROM FINITE AREA COMBUSTOR

 Pin =   986.3 PSIA
 Ac/At =  1.0000      Pinj/Pinf =  1.239446
 CASE =                

             REACTANT                       MOLES         ENERGY      TEMP
                                                         KJ/KG-MOL      K
 FUEL        CH4                          0.6000000    -74600.000    298.150
 OXIDANT     N2O                          0.5000000     81600.000    298.150
 OXIDANT     O2                           0.5000000        -0.000    298.150

 O/F=    3.94846  %FUEL= 20.208310  R,EQ.RATIO= 1.600000  PHI,EQ.RATIO= 1.600000

                 INJECTOR  COMB END  THROAT
 Pinj/P            1.0000   2.1783   2.1866
 P, BAR            68.000   31.217   31.099
 T, K             3203.80  2946.41  2944.76
 RHO, KG/CU M    5.2114 0 2.6154 0 2.6070 0
 H, KJ/KG         -83.139  -786.34  -790.86
 U, KJ/KG        -1387.97 -1979.94 -1983.76
 G, KJ/KG        -38727.7 -36584.1 -36568.6
 S, KJ/(KG)(K)    12.0621  12.1496  12.1496

 M, (1/n)          20.415   20.524   20.525
 (dLV/dLP)t      -1.00749 -1.00464 -1.00462
 (dLV/dLT)p        1.1446   1.0963   1.0959
 Cp, KJ/(KG)(K)    3.3628   3.0089   3.0061
 GAMMAs            1.1781   1.1865   1.1866
 SON VEL,M/SEC     1239.8   1190.0   1189.7
 MACH NUMBER        0.000    0.997    1.000

 PERFORMANCE PARAMETERS

 Ae/At                      1.0000   1.0000
[...]





              THEORETICAL ROCKET PERFORMANCE ASSUMING EQUILIBRIUM

            COMPOSITION DURING EXPANSION FROM FINITE AREA COMBUSTOR

 Pin =   986.3 PSIA
 Ac/At =  1.0000      Pinj/Pinf =  1.239446
 CASE =                

             REACTANT                       MOLES         ENERGY      TEMP
                                                         KJ/KG-MOL      K
 FUEL        CH4                          0.6000000    -74600.000    298.150
 OXIDANT     N2O                          0.5000000     81600.000    298.150
 OXIDANT     O2                           0.5000000        -0.000    298.150

 O/F=    3.94846  %FUEL= 20.208310  R,EQ.RATIO= 1.600000  PHI,EQ.RATIO= 1.600000

                 INJECTOR  COMB END  THROAT
 Pinj/P            1.0000   2.1783   2.1866
 P, BAR            68.000   31.217   31.099
 T, K             3203.80  2946.41  2944.76
 RHO, KG/CU M    5.2114 0 2.6154 0 2.6070 0
 H, KJ/KG         -83.139  -786.34  -790.86
 U, KJ/KG        -1387.97 -1979.94 -1983.76
 G, KJ/KG        -38727.7 -36584.1 -36568.6
 S, KJ/(KG)(K)    12.0621  12.1496  12.1496

 M, (1/n)          20.415   20.524   20.525
 (dLV/dLP)t      -1.00749 -1.00464 -1.00462
 (dLV/dLT)p        1.1446   1.0963   1.0959
 Cp, KJ/(KG)(K)    3.3628   3.0089   3.0061
 GAMMAs            1.1781   1.1865   1.1866
 SON VEL,M/SEC     1239.8   1190.0   1189.7
 MACH NUMBER        0.000    0.997    1.000

 PERFORMANCE PARAMETERS

 Ae/At                      1.0000   1.0000
 CSTAR, M/SEC               1768.8   1768.8
 CF                         0.6705   0.6726
 Ivac, M/SEC                2192.4   2192.4
 Isp, M/SEC                 1185.9   1189.7


 MOLE FRACTIONS

 *CO              0.20848  0.20681  0.20679
 *CO2             0.04866  0.05173  0.05175
 *H               0.01454  0.01016  0.01013
 HCO              0.00001  0.00001  0.00001
 *H2              0.17790  0.18022  0.18024
 H2O              0.32362  0.32856  0.32859
 NH2              0.00001  0.00000  0.00000
 NH3              0.00001  0.00001  0.00001
 *NO              0.00128  0.00062  0.00062
 *N2              0.21364  0.21513  0.21514
 *O               0.00050  0.00020  0.00020
 *OH              0.01096  0.00640  0.00637
 *O2              0.00035  0.00015  0.00015

  * THERMODYNAMIC PROPERTIES FITTED TO 20000.K

    PRODUCTS WHICH WERE CONSIDERED BUT WHOSE MOLE FRACTIONS
    WERE LESS THAN 5.000000E-06 FOR ALL ASSIGNED CONDITIONS

 *C              *CH             CH2             CH3             CH2OH          
 CH3O            CH4             CH3OH           CH3OOH          *CN            
 CNN             COOH            *C2             C2H             C2H2,acetylene 
 C2H2,vinylidene CH2CO,ketene    O(CH)2O         HO(CO)2OH       C2H3,vinyl     
 CH3CN           CH3CO,acetyl    C2H4            C2H4O,ethylen-o CH3CHO,ethanal 
 CH3COOH         OHCH2COOH       C2H5            C2H6            CH3N2CH3       
 C2H5OH          CH3OCH3         CH3O2CH3        CCN             CNC            
 OCCN            C2N2            C2O             *C3             C3H3,1-propynl 
 C3H3,2-propynl  C3H4,allene     C3H4,propyne    C3H4,cyclo-     C3H5,allyl     
 C3H6,propylene  C3H6,cyclo-     C3H6O,propylox  C3H6O,acetone   C3H6O,propanal 
 C3H7,n-propyl   C3H7,i-propyl   C3H8            C3H8O,1propanol C3H8O,2propanol
 CNCOCN          C3O2            *C4             C4H2,butadiyne  C4H4,1,3-cyclo-
 C4H6,butadiene  C4H6,1butyne    C4H6,2butyne    C4H6,cyclo-     C4H8,1-butene  
 C4H8,cis2-buten C4H8,tr2-butene C4H8,isobutene  C4H8,cyclo-     (CH3COOH)2     
 C4H9,n-butyl    C4H9,i-butyl    C4H9,s-butyl    C4H9,t-butyl    C4H10,n-butane 
 C4H10,isobutane C4N2            *C5             C5H6,1,3cyclo-  C5H8,cyclo-    
 C5H10,1-pentene C5H10,cyclo-    C5H11,pentyl    C5H11,t-pentyl  C5H12,n-pentane
 C5H12,i-pentane CH3C(CH3)2CH3   C6H2            C6H5,phenyl     C6H5O,phenoxy  
 C6H6            C6H5OH,phenol   C6H10,cyclo-    C6H12,1-hexene  C6H12,cyclo-   
 C6H13,n-hexyl   C6H14,n-hexane  C7H7,benzyl     C7H8            C7H8O,cresol-mx
 C7H14,1-heptene C7H15,n-heptyl  C7H16,n-heptane C7H16,2-methylh C8H8,styrene   
 C8H10,ethylbenz C8H16,1-octene  C8H17,n-octyl   C8H18,n-octane  C8H18,isooctane
 C9H19,n-nonyl   C10H8,naphthale C10H21,n-decyl  C12H9,o-bipheny C12H10,biphenyl
 HCN             HCCN            HCCO            HNC             HNCO           
 HNO             HNO2            HNO3            HO2             HCHO,formaldehy
 HCOOH           H2O2            (HCOOH)2        *N              NCO            
 *NH             NH2OH           NO2             NO3             NCN            
 N2H2            NH2NO2          N2H4            N2O             N2O3           
 N2O4            N2O5            N3              N3H             O3             
 C(gr)           H2O(cr)         H2O(L)         






 WARNING!!  ASSIGNED pip =   0.00000 IS NOT PERMITTED
 TO BE LESS THAN  Pinj/Pc =  2.17828. POINT OMITTED (ROCKET)

 AN ASSIGNED AREA RATIO IS < 1 (ROCKET)





              THEORETICAL ROCKET PERFORMANCE ASSUMING EQUILIBRIUM

            COMPOSITION DURING EXPANSION FROM FINITE AREA COMBUSTOR

 Pin =   986.3 PSIA
 Ac/At =  1.0000      Pinj/Pinf =  1.239446
 CASE =                

             REACTANT                       MOLES         ENERGY      TEMP
                                                         KJ/KG-MOL      K
 FUEL        CH4                          0.6000000    -74600.000    298.150
 OXIDANT     N2O                          0.5000000     81600.000    298.150
 OXIDANT     O2                           0.5000000        -0.000    298.150

 O/F=    3.94846  %FUEL= 20.208310  R,EQ.RATIO= 1.600000  PHI,EQ.RATIO= 1.600000

                 INJECTOR  COMB END  THROAT
 Pinj/P            1.0000   2.1783   2.1866
 P, BAR            68.000   31.217   31.099
 T, K             3203.80  2946.41  2944.76
 RHO, KG/CU M    5.2114 0 2.6154 0 2.6070 0
 H, KJ/KG         -83.139  -786.34  -790.86
 U, KJ/KG        -1387.97 -1979.94 -1983.76
 G, KJ/KG        -38727.7 -36584.1 -36568.6
 S, KJ/(KG)(K)    12.0621  12.1496  12.1496

 M, (1/n)          20.415   20.524   20.525
 (dLV/dLP)t      -1.00749 -1.00464 -1.00462
 (dLV/dLT)p        1.1446   1.0963   1.0959
 Cp, KJ/(KG)(K)    3.3628   3.0089   3.0061
 GAMMAs            1.1781   1.1865   1.1866
 SON VEL,M/SEC     1239.8   1190.0   1189.7
 MACH NUMBER        0.000    0.997    1.000

 PERFORMANCE PARAMETERS

 Ae/At                      1.0000   1.0000
 CSTAR, M/SEC               1768.8   1768.8
 CF                         0.6705   0.6726
 Ivac, M/SEC                2192.4   2192.4
 Isp, M/SEC                 1185.9   1189.7


 MOLE FRACTIONS

 *CO              0.20848  0.20681  0.20679
 *CO2             0.04866  0.05173  0.05175
 *H               0.01454  0.01016  0.01013
 HCO              0.00001  0.00001  0.00001
 *H2              0.17790  0.18022  0.18024
 H2O              0.32362  0.32856  0.32859
 NH2              0.00001  0.00000  0.00000
 NH3              0.00001  0.00001  0.00001
 *NO              0.00128  0.00062  0.00062
 *N2              0.21364  0.21513  0.21514
 *O               0.00050  0.00020  0.00020
 *OH              0.01096  0.00640  0.00637
 *O2              0.00035  0.00015  0.00015

  * THERMODYNAMIC PROPERTIES FITTED TO 20000.K

    PRODUCTS WHICH WERE CONSIDERED BUT WHOSE MOLE FRACTIONS
    WERE LESS THAN 5.000000E-06 FOR ALL ASSIGNED CONDITIONS

 *C              *CH             CH2             CH3             CH2OH          
 CH3O            CH4             CH3OH           CH3OOH          *CN            
 CNN             COOH            *C2             C2H             C2H2,acetylene 
 C2H2,vinylidene CH2CO,ketene    O(CH)2O         HO(CO)2OH       C2H3,vinyl     
 CH3CN           CH3CO,acetyl    C2H4            C2H4O,ethylen-o CH3CHO,ethanal 
 CH3COOH         OHCH2COOH       C2H5            C2H6            CH3N2CH3       
 C2H5OH          CH3OCH3         CH3O2CH3        CCN             CNC            
 OCCN            C2N2            C2O             *C3             C3H3,1-propynl 
 C3H3,2-propynl  C3H4,allene     C3H4,propyne    C3H4,cyclo-     C3H5,allyl     
 C3H6,propylene  C3H6,cyclo-     C3H6O,propylox  C3H6O,acetone   C3H6O,propanal 
 C3H7,n-propyl   C3H7,i-propyl   C3H8            C3H8O,1propanol C3H8O,2propanol
 CNCOCN          C3O2            *C4             C4H2,butadiyne  C4H4,1,3-cyclo-
 C4H6,butadiene  C4H6,1butyne    C4H6,2butyne    C4H6,cyclo-     C4H8,1-butene  
 C4H8,cis2-buten C4H8,tr2-butene C4H8,isobutene  C4H8,cyclo-     (CH3COOH)2     
 C4H9,n-butyl    C4H9,i-butyl    C4H9,s-butyl    C4H9,t-butyl    C4H10,n-butane 
 C4H10,isobutane C4N2            *C5             C5H6,1,3cyclo-  C5H8,cyclo-    
 C5H10,1-pentene C5H10,cyclo-    C5H11,pentyl    C5H11,t-pentyl  C5H12,n-pentane
 C5H12,i-pentane CH3C(CH3)2CH3   C6H2            C6H5,phenyl     C6H5O,phenoxy  
 C6H6            C6H5OH,phenol   C6H10,cyclo-    C6H12,1-hexene  C6H12,cyclo-   
 C6H13,n-hexyl   C6H14,n-hexane  C7H7,benzyl     C7H8            C7H8O,cresol-mx
 C7H14,1-heptene C7H15,n-heptyl  C7H16,n-heptane C7H16,2-methylh C8H8,styrene   
 C8H10,ethylbenz C8H16,1-octene  C8H17,n-octyl   C8H18,n-octane  C8H18,isooctane
 C9H19,n-nonyl   C10H8,naphthale C10H21,n-decyl  C12H9,o-bipheny C12H10,biphenyl
 HCN             HCCN            HCCO            HNC             HNCO           
 HNO             HNO2            HNO3            HO2             HCHO,formaldehy
 HCOOH           H2O2            (HCOOH)2        *N              NCO            
 *NH             NH2OH           NO2             NO3             NCN            
 N2H2            NH2NO2          N2H4            N2O             N2O3           
 N2O4            N2O5            N3              N3H             O3             
 C(gr)           H2O(cr)         H2O(L)         






 WARNING!!  ASSIGNED pip =   1.00000 IS NOT PERMITTED
 TO BE LESS THAN  Pinj/Pc =  2.17828. POINT OMITTED (ROCKET)

 AN ASSIGNED AREA RATIO IS < 1 (ROCKET)





              THEORETICAL ROCKET PERFORMANCE ASSUMING EQUILIBRIUM

            COMPOSITION DURING EXPANSION FROM FINITE AREA COMBUSTOR

 Pin =   986.3 PSIA
 Ac/At =  1.0000      Pinj/Pinf =  1.239446
 CASE =                

             REACTANT                       MOLES         ENERGY      TEMP
                                                         KJ/KG-MOL      K
 FUEL        CH4                          0.6000000    -74600.000    298.150
 OXIDANT     N2O                          0.5000000     81600.000    298.150
 OXIDANT     O2                           0.5000000        -0.000    298.150

 O/F=    3.94846  %FUEL= 20.208310  R,EQ.RATIO= 1.600000  PHI,EQ.RATIO= 1.600000

                 INJECTOR  COMB END  THROAT
 Pinj/P            1.0000   2.1783   2.1866
 P, BAR            68.000   31.217   31.099
 T, K             3203.80  2946.41  2944.76
 RHO, KG/CU M    5.2114 0 2.6154 0 2.6070 0
 H, KJ/KG         -83.139  -786.34  -790.86
 U, KJ/KG        -1387.97 -1979.94 -1983.76
 G, KJ/KG        -38727.7 -36584.1 -36568.6
 S, KJ/(KG)(K)    12.0621  12.1496  12.1496

 M, (1/n)          20.415   20.524   20.525
 (dLV/dLP)t      -1.00749 -1.00464 -1.00462
 (dLV/dLT)p        1.1446   1.0963   1.0959
 Cp, KJ/(KG)(K)    3.3628   3.0089   3.0061
 GAMMAs            1.1781   1.1865   1.1866
 SON VEL,M/SEC     1239.8   1190.0   1189.7
 MACH NUMBER        0.000    0.997    1.000

 PERFORMANCE PARAMETERS

 Ae/At                      1.0000   1.0000
 CSTAR, M/SEC               1768.8   1768.8
 CF                         0.6705   0.6726
 Ivac, M/SEC                2192.4   2192.4
 Isp, M/SEC                 1185.9   1189.7


 MOLE FRACTIONS

 *CO              0.20848  0.20681  0.20679
 *CO2             0.04866  0.05173  0.05175
 *H               0.01454  0.01016  0.01013
 HCO              0.00001  0.00001  0.00001
 *H2              0.17790  0.18022  0.18024
 H2O              0.32362  0.32856  0.32859
 NH2              0.00001  0.00000  0.00000
 NH3              0.00001  0.00001  0.00001
 *NO              0.00128  0.00062  0.00062
 *N2              0.21364  0.21513  0.21514
 *O               0.00050  0.00020  0.00020
 *OH              0.01096  0.00640  0.00637
 *O2              0.00035  0.00015  0.00015

  * THERMODYNAMIC PROPERTIES FITTED TO 20000.K

    PRODUCTS WHICH WERE CONSIDERED BUT WHOSE MOLE FRACTIONS
    WERE LESS THAN 5.000000E-06 FOR ALL ASSIGNED CONDITIONS

 *C              *CH             CH2             CH3             CH2OH          
 CH3O            CH4             CH3OH           CH3OOH          *CN            
 CNN             COOH            *C2             C2H             C2H2,acetylene 
 C2H2,vinylidene CH2CO,ketene    O(CH)2O         HO(CO)2OH       C2H3,vinyl     
 CH3CN           CH3CO,acetyl    C2H4            C2H4O,ethylen-o CH3CHO,ethanal 
 CH3COOH         OHCH2COOH       C2H5            C2H6            CH3N2CH3       
 C2H5OH          CH3OCH3         CH3O2CH3        CCN             CNC            
 OCCN            C2N2            C2O             *C3             C3H3,1-propynl 
 C3H3,2-propynl  C3H4,allene     C3H4,propyne    C3H4,cyclo-     C3H5,allyl     
 C3H6,propylene  C3H6,cyclo-     C3H6O,propylox  C3H6O,acetone   C3H6O,propanal 
 C3H7,n-propyl   C3H7,i-propyl   C3H8            C3H8O,1propanol C3H8O,2propanol
 CNCOCN          C3O2            *C4             C4H2,butadiyne  C4H4,1,3-cyclo-
 C4H6,butadiene  C4H6,1butyne    C4H6,2butyne    C4H6,cyclo-     C4H8,1-butene  
 C4H8,cis2-buten C4H8,tr2-butene C4H8,isobutene  C4H8,cyclo-     (CH3COOH)2     
 C4H9,n-butyl    C4H9,i-butyl    C4H9,s-butyl    C4H9,t-butyl    C4H10,n-butane 
 C4H10,isobutane C4N2            *C5             C5H6,1,3cyclo-  C5H8,cyclo-    
 C5H10,1-pentene C5H10,cyclo-    C5H11,pentyl    C5H11,t-pentyl  C5H12,n-pentane
 C5H12,i-pentane CH3C(CH3)2CH3   C6H2            C6H5,phenyl     C6H5O,phenoxy  
 C6H6            C6H5OH,phenol   C6H10,cyclo-    C6H12,1-hexene  C6H12,cyclo-   
 C6H13,n-hexyl   C6H14,n-hexane  C7H7,benzyl     C7H8            C7H8O,cresol-mx
 C7H14,1-heptene C7H15,n-heptyl  C7H16,n-heptane C7H16,2-methylh C8H8,styrene   
 C8H10,ethylbenz C8H16,1-octene  C8H17,n-octyl   C8H18,n-octane  C8H18,isooctane
 C9H19,n-nonyl   C10H8,naphthale C10H21,n-decyl  C12H9,o-bipheny C12H10,biphenyl
 HCN             HCCN            HCCO            HNC             HNCO           
 HNO             HNO2            HNO3            HO2             HCHO,formaldehy
 HCOOH           H2O2            (HCOOH)2        *N              NCO            
 *NH             NH2OH           NO2             NO3             NCN            
 N2H2            NH2NO2          N2H4            N2O             N2O3           
 N2O4            N2O5            N3              N3H             O3             
 C(gr)           H2O(cr)         H2O(L)         





   4    5    1931.820     -12.588      -9.986     -13.675     -22.537


 AN ASSIGNED AREA RATIO IS < 1 (ROCKET)





              THEORETICAL ROCKET PERFORMANCE ASSUMING EQUILIBRIUM

            COMPOSITION DURING EXPANSION FROM FINITE AREA COMBUSTOR

 Pin =   986.3 PSIA
 Ac/At =  1.0000      Pinj/Pinf =  1.239446
 CASE =                

             REACTANT                       MOLES         ENERGY      TEMP
                                                         KJ/KG-MOL      K
 FUEL        CH4                          0.6000000    -74600.000    298.150
 OXIDANT     N2O                          0.5000000     81600.000    298.150
 OXIDANT     O2                           0.5000000        -0.000    298.150

 O/F=    3.94846  %FUEL= 20.208310  R,EQ.RATIO= 1.600000  PHI,EQ.RATIO= 1.600000

                 INJECTOR  COMB END  THROAT     EXIT
 Pinj/P            1.0000   2.1783   2.1866   25.000
 P, BAR            68.000   31.217   31.099   2.7200
 T, K             3203.80  2946.41  2944.76  1931.82
 RHO, KG/CU M    5.2114 0 2.6154 0 2.6070 0 3.5064-1
 H, KJ/KG         -83.139  -786.34  -790.86 -3170.02
 U, KJ/KG        -1387.97 -1979.94 -1983.76 -3945.75
 G, KJ/KG        -38727.7 -36584.1 -36568.6 -26640.9
 S, KJ/(KG)(K)    12.0621  12.1496  12.1496  12.1496

 M, (1/n)          20.415   20.524   20.525   20.706
 (dLV/dLP)t      -1.00749 -1.00464 -1.00462 -1.00008
 (dLV/dLT)p        1.1446   1.0963   1.0959   1.0023
 Cp, KJ/(KG)(K)    3.3628   3.0089   3.0061   2.1059
 GAMMAs            1.1781   1.1865   1.1866   1.2368
 SON VEL,M/SEC     1239.8   1190.0   1189.7    979.5
 MACH NUMBER        0.000    0.997    1.000    2.537

 PERFORMANCE PARAMETERS

 Ae/At                      1.0000   1.0000   3.5601
 CSTAR, M/SEC               1768.8   1768.8   1768.8
 CF                         0.6705   0.6726   1.4047
 Ivac, M/SEC                2192.4   2192.4   2796.9
 Isp, M/SEC                 1185.9   1189.7   2484.7


 MOLE FRACTIONS

 *CO              0.20848  0.20681  0.20679  0.19046
 *CO2             0.04866  0.05173  0.05175  0.07037
 *H               0.01454  0.01016  0.01013  0.00027
 HCO              0.00001  0.00001  0.00001  0.00000
 *H2              0.17790  0.18022  0.18024  0.20066
 H2O              0.32362  0.32856  0.32859  0.32083
 NH2              0.00001  0.00000  0.00000  0.00000
 NH3              0.00001  0.00001  0.00001  0.00000
 *NO              0.00128  0.00062  0.00062  0.00000
 *N2              0.21364  0.21513  0.21514  0.21736
 *O               0.00050  0.00020  0.00020  0.00000
 *OH              0.01096  0.00640  0.00637  0.00004
 *O2              0.00035  0.00015  0.00015  0.00000

  * THERMODYNAMIC PROPERTIES FITTED TO 20000.K

    PRODUCTS WHICH WERE CONSIDERED BUT WHOSE MOLE FRACTIONS
    WERE LESS THAN 5.000000E-06 FOR ALL ASSIGNED CONDITIONS

 *C              *CH             CH2             CH3             CH2OH          
 CH3O            CH4             CH3OH           CH3OOH          *CN            
 CNN             COOH            *C2             C2H             C2H2,acetylene 
 C2H2,vinylidene CH2CO,ketene    O(CH)2O         HO(CO)2OH       C2H3,vinyl     
 CH3CN           CH3CO,acetyl    C2H4            C2H4O,ethylen-o CH3CHO,ethanal 
 CH3COOH         OHCH2COOH       C2H5            C2H6            CH3N2CH3       
 C2H5OH          CH3OCH3         CH3O2CH3        CCN             CNC            
 OCCN            C2N2            C2O             *C3             C3H3,1-propynl 
 C3H3,2-propynl  C3H4,allene     C3H4,propyne    C3H4,cyclo-     C3H5,allyl     
 C3H6,propylene  C3H6,cyclo-     C3H6O,propylox  C3H6O,acetone   C3H6O,propanal 
 C3H7,n-propyl   C3H7,i-propyl   C3H8            C3H8O,1propanol C3H8O,2propanol
 CNCOCN          C3O2            *C4             C4H2,butadiyne  C4H4,1,3-cyclo-
 C4H6,butadiene  C4H6,1butyne    C4H6,2butyne    C4H6,cyclo-     C4H8,1-butene  
 C4H8,cis2-buten C4H8,tr2-butene C4H8,isobutene  C4H8,cyclo-     (CH3COOH)2     
 C4H9,n-butyl    C4H9,i-butyl    C4H9,s-butyl    C4H9,t-butyl    C4H10,n-butane 
 C4H10,isobutane C4N2            *C5             C5H6,1,3cyclo-  C5H8,cyclo-    
 C5H10,1-pentene C5H10,cyclo-    C5H11,pentyl    C5H11,t-pentyl  C5H12,n-pentane
 C5H12,i-pentane CH3C(CH3)2CH3   C6H2            C6H5,phenyl     C6H5O,phenoxy  
 C6H6            C6H5OH,phenol   C6H10,cyclo-    C6H12,1-hexene  C6H12,cyclo-   
 C6H13,n-hexyl   C6H14,n-hexane  C7H7,benzyl     C7H8            C7H8O,cresol-mx
 C7H14,1-heptene C7H15,n-heptyl  C7H16,n-heptane C7H16,2-methylh C8H8,styrene   
 C8H10,ethylbenz C8H16,1-octene  C8H17,n-octyl   C8H18,n-octane  C8H18,isooctane
 C9H19,n-nonyl   C10H8,naphthale C10H21,n-decyl  C12H9,o-bipheny C12H10,biphenyl
 HCN             HCCN            HCCO            HNC             HNCO           
 HNO             HNO2            HNO3            HO2             HCHO,formaldehy
 HCOOH           H2O2            (HCOOH)2        *N              NCO            
 *NH             NH2OH           NO2             NO3             NCN            
 N2H2            NH2NO2          N2H4            N2O             N2O3           
 N2O4            N2O5            N3              N3H             O3             
 C(gr)           H2O(cr)         H2O(L)         



