
 *******************************************************************************

         NASA-GLENN CHEMICAL EQUILIBRIUM PROGRAM CEA2, MAY 21, 2004
                   BY  BONNIE MCBRIDE AND SANFORD GORDON
      REFS: NASA RP-1311, PART I, 1994 AND NASA RP-1311, PART II, 1996

 *******************************************************************************



 prob rocket fac p,bar=13.0,ac/at=13.4268250093,
 o/f=1.262067548, pi/pe=1, eq
 react
 	oxid=O2  wt=0.981467700244	t,k=365.8
 	oxid=H2O wt=0.0111193798534	t,k=365.8
 	oxid=CO2 wt=0.00741291990225	t,k=365.8
 	fuel=PMMA  wt=100 t,k=293.15
 	h,kj/mol=-442.14  C 5 H 8 O 2
 end

 OPTIONS: TP=F  HP=F  SP=F  TV=F  UV=F  SV=F  DETN=F  SHOCK=F  REFL=F  INCD=F
 RKT=T  FROZ=F  EQL=T  IONS=F  SIUNIT=T  DEBUGF=F  SHKDBG=F  DETDBG=T  TRNSPT=F

 TRACE= 0.00E+00  S/R= 0.000000E+00  H/R= 0.000000E+00  U/R= 0.000000E+00

 Pc,BAR =    13.000000

 Pc/P =     1.0000

 SUBSONIC AREA RATIOS =

 SUPERSONIC AREA RATIOS =

 NFZ=  1  Mdot/Ac= 0.000000E+00  Ac/At= 1.342683E+01

    REACTANT          WT.FRAC   (ENERGY/R),K   TEMP,K  DENSITY
        EXPLODED FORMULA
 O: O2               0.981468   0.240699E+03   365.80  0.0000
          O  2.00000
 O: H2O              0.011119  -0.288100E+05   365.80  0.0000
          H  2.00000  O  1.00000
 O: CO2              0.007413  -0.470139E+05   365.80  0.0000
          C  1.00000  O  2.00000
 F: PMMA             1.000000  -0.531769E+05   293.15  0.0000
          C  5.00000  H  8.00000  O  2.00000

  SPECIES BEING CONSIDERED IN THIS SYSTEM
 (CONDENSED PHASE MAY HAVE NAME LISTED SEVERAL TIMES)
  LAST thermo.inp UPDATE:    9/09/04

  g 7/97  *C               tpis79  *CH              g 4/02  CH2            
  g 4/02  CH3              g11/00  CH2OH            g 7/00  CH3O           
  g 8/99  CH4              g 7/00  CH3OH            srd 01  CH3OOH         
  tpis79  *CO              g 9/99  *CO2             tpis91  COOH           
  tpis91  *C2              g 6/01  C2H              g 1/91  C2H2,acetylene 
  g 5/01  C2H2,vinylidene  g 4/02  CH2CO,ketene     g 3/02  O(CH)2O        
  srd 01  HO(CO)2OH        g 7/01  C2H3,vinyl       g 6/96  CH3CO,acetyl   
  g 1/00  C2H4             g 8/88  C2H4O,ethylen-o  g 8/88  CH3CHO,ethanal 
  g 6/00  CH3COOH          srd 01  OHCH2COOH        g 7/00  C2H5           
  g 7/00  C2H6             g 8/88  C2H5OH           g 7/00  CH3OCH3        
  srd 01  CH3O2CH3         g 8/00  C2O              tpis79  *C3            
  n 4/98  C3H3,1-propynl   n 4/98  C3H3,2-propynl   g 2/00  C3H4,allene    
  g 1/00  C3H4,propyne     g 5/90  C3H4,cyclo-      g 3/01  C3H5,allyl     
  g 2/00  C3H6,propylene   g 1/00  C3H6,cyclo-      g 6/01  C3H6O,propylox 
  g 6/97  C3H6O,acetone    g 1/02  C3H6O,propanal   g 7/01  C3H7,n-propyl  
  g 9/85  C3H7,i-propyl    g 2/00  C3H8             g 2/00  C3H8O,1propanol
  g 2/00  C3H8O,2propanol  g 7/88  C3O2             g tpis  *C4            
  g 7/01  C4H2,butadiyne   g 8/00  C4H4,1,3-cyclo-  n10/92  C4H6,butadiene 
  n10/93  C4H6,1butyne     n10/93  C4H6,2butyne     g 8/00  C4H6,cyclo-    
  n 4/88  C4H8,1-butene    n 4/88  C4H8,cis2-buten  n 4/88  C4H8,tr2-butene
  n 4/88  C4H8,isobutene   g 8/00  C4H8,cyclo-      g10/00  (CH3COOH)2     
  n10/84  C4H9,n-butyl     n10/84  C4H9,i-butyl     g 1/93  C4H9,s-butyl   
  g 1/93  C4H9,t-butyl     g12/00  C4H10,n-butane   g 8/00  C4H10,isobutane
  g 8/00  *C5              g 5/90  C5H6,1,3cyclo-   g 1/93  C5H8,cyclo-    
  n 4/87  C5H10,1-pentene  g 2/01  C5H10,cyclo-     n10/84  C5H11,pentyl   
  g 1/93  C5H11,t-pentyl   n10/85  C5H12,n-pentane  n10/85  C5H12,i-pentane
  n10/85  CH3C(CH3)2CH3    g 2/93  C6H2             g11/00  C6H5,phenyl    
  g 8/00  C6H5O,phenoxy    g 8/00  C6H6             g 8/00  C6H5OH,phenol  
  g 1/93  C6H10,cyclo-     n 4/87  C6H12,1-hexene   g 6/90  C6H12,cyclo-   
  n10/83  C6H13,n-hexyl    g 6/01  C6H14,n-hexane   g 7/01  C7H7,benzyl    
  g 1/93  C7H8             g12/00  C7H8O,cresol-mx  n 4/87  C7H14,1-heptene
  n10/83  C7H15,n-heptyl   n10/85  C7H16,n-heptane  n10/85  C7H16,2-methylh
  n 4/89  C8H8,styrene     n10/86  C8H10,ethylbenz  n 4/87  C8H16,1-octene 
  n10/83  C8H17,n-octyl    n 4/85  C8H18,n-octane   n 4/85  C8H18,isooctane
  n10/83  C9H19,n-nonyl    g 3/01  C10H8,naphthale  n10/83  C10H21,n-decyl 
  g 8/00  C12H9,o-bipheny  g 8/00  C12H10,biphenyl  g 6/97  *H             
  g 1/01  HCO              g 6/01  HCCO             g 4/02  HO2            
  tpis78  *H2              g 5/01  HCHO,formaldehy  g 6/01  HCOOH          
  g 8/89  H2O              g 6/99  H2O2             g 6/01  (HCOOH)2       
  g 5/97  *O               g 4/02  *OH              tpis89  *O2            
  g 8/01  O3               n 4/83  C(gr)            n 4/83  C(gr)          
  n 4/83  C(gr)            g11/99  H2O(cr)          g 8/01  H2O(L)         
  g 8/01  H2O(L)         

 O/F =   1.262068

                       EFFECTIVE FUEL     EFFECTIVE OXIDANT        MIXTURE
 ENTHALPY                  h(2)/R              h(1)/R               h0/R
 (KG-MOL)(K)/KG       -0.53115398E+03     -0.18318364E+02     -0.24502937E+03

 KG-FORM.WT./KG             bi(2)               bi(1)               b0i
  *O                   0.19976863E-01      0.62298129E-01      0.43589021E-01
  *H                   0.79907451E-01      0.12344387E-02      0.36013689E-01
  *C                   0.49942157E-01      0.16843908E-03      0.22172078E-01

 POINT ITN      T            O           H           C 
   1   22    3199.604     -16.569     -10.433     -15.406
   2    2    3196.675     -16.577     -10.446     -15.428
 Pinf/Pt = 1.733719
   3    4    3022.479     -16.984     -10.618     -15.610
 Pinf/Pt = 1.735626
   3    2    3022.132     -16.985     -10.618     -15.610
   4    1    3196.616     -16.577     -10.447     -15.428
   4    2    3196.510     -16.577     -10.447     -15.428
   4    2    3196.382     -16.577     -10.447     -15.428
   4    1    3196.322     -16.578     -10.447     -15.428
   4    1    3196.316     -16.578     -10.447     -15.428
   2    2    3199.495     -16.569     -10.434     -15.407
 Pinf/Pt = 1.733866
   3    4    3024.668     -16.977     -10.605     -15.587
 Pinf/Pt = 1.735803
   3    2    3024.314     -16.978     -10.605     -15.587
   4    1    3199.436     -16.569     -10.434     -15.407
   4    2    3199.329     -16.569     -10.434     -15.407
   4    2    3199.201     -16.570     -10.434     -15.407
   4    1    3199.141     -16.570     -10.434     -15.407
   4    1    3199.135     -16.570     -10.434     -15.407
 END OF CHAMBER ITERATIONS

 WARNING!!  ASSIGNED pip =   1.00000 IS NOT PERMITTED
 TO BE LESS THAN  Pinj/Pc =  1.00225. POINT OMITTED (ROCKET)





              THEORETICAL ROCKET PERFORMANCE ASSUMING EQUILIBRIUM

            COMPOSITION DURING EXPANSION FROM FINITE AREA COMBUSTOR

 Pin =   188.5 PSIA
 Ac/At = 13.4268      Pinj/Pinf =  1.001124
 CASE =                

             REACTANT                    WT FRACTION      ENERGY      TEMP
                                          (SEE NOTE)     KJ/KG-MOL      K  
 OXIDANT     O2                           0.9814677      2001.294    365.800
 OXIDANT     H2O                          0.0111194   -239541.240    365.800
 OXIDANT     CO2                          0.0074129   -390897.691    365.800
 FUEL        PMMA                         1.0000000   -442140.000    293.150

 O/F=    1.26207  %FUEL= 44.207345  R,EQ.RATIO= 1.430429  PHI,EQ.RATIO= 1.548188

                 INJECTOR  COMB END  THROAT
 Pinj/P            1.0000   1.0023   1.7378
 P, BAR            13.000   12.971   7.4809
 T, K             3199.60  3199.13  3024.31
 RHO, KG/CU M    1.1695 0 1.1671 0 7.2003-1
 H, KJ/KG        -2037.30 -2038.55 -2630.10
 U, KJ/KG        -3148.85 -3149.92 -3669.07
 G, KJ/KG        -38296.1 -38293.2 -36903.6
 S, KJ/(KG)(K)    11.3323  11.3327  11.3327

 M, (1/n)          23.933   23.934   24.202
 (dLV/dLP)t      -1.02235 -1.02234 -1.01607
 (dLV/dLT)p        1.4392   1.4391   1.3338
 Cp, KJ/(KG)(K)    5.0004   5.0002   4.3737
 GAMMAs            1.1384   1.1384   1.1411
 SON VEL,M/SEC     1124.9   1124.8   1088.9
 MACH NUMBER        0.000    0.044    1.000

 PERFORMANCE PARAMETERS

 Ae/At                      13.428   1.0000
 CSTAR, M/SEC               1656.3   1656.3
 CF                         0.0302   0.6574
 Ivac, M/SEC               22265.5   2043.0
 Isp, M/SEC                   50.0   1088.9


 MOLE FRACTIONS

 *CO              0.37438  0.37437  0.37048
 *CO2             0.15626  0.15628  0.16613
 *H               0.02400  0.02400  0.01924
 HCO              0.00001  0.00001  0.00000
 HO2              0.00001  0.00001  0.00001
 *H2              0.09478  0.09478  0.09546
 H2O              0.30804  0.30806  0.31895
 *O               0.00452  0.00452  0.00266
 *OH              0.03224  0.03223  0.02355
 *O2              0.00574  0.00574  0.00352

  * THERMODYNAMIC PROPERTIES FITTED TO 20000.K

    PRODUCTS WHICH WERE CONSIDERED BUT WHOSE MOLE FRACTIONS
    WERE LESS THAN 5.000000E-06 FOR ALL ASSIGNED CONDITIONS

 *C              *CH             CH2             CH3             CH2OH          
 CH3O            CH4             CH3OH           CH3OOH          COOH           
 *C2             C2H             C2H2,acetylene  C2H2,vinylidene CH2CO,ketene   
 O(CH)2O         HO(CO)2OH       C2H3,vinyl      CH3CO,acetyl    C2H4           
 C2H4O,ethylen-o CH3CHO,ethanal  CH3COOH         OHCH2COOH       C2H5           
 C2H6            C2H5OH          CH3OCH3         CH3O2CH3        C2O            
 *C3             C3H3,1-propynl  C3H3,2-propynl  C3H4,allene     C3H4,propyne   
 C3H4,cyclo-     C3H5,allyl      C3H6,propylene  C3H6,cyclo-     C3H6O,propylox 
 C3H6O,acetone   C3H6O,propanal  C3H7,n-propyl   C3H7,i-propyl   C3H8           
 C3H8O,1propanol C3H8O,2propanol C3O2            *C4             C4H2,butadiyne 
 C4H4,1,3-cyclo- C4H6,butadiene  C4H6,1butyne    C4H6,2butyne    C4H6,cyclo-    
 C4H8,1-butene   C4H8,cis2-buten C4H8,tr2-butene C4H8,isobutene  C4H8,cyclo-    
 (CH3COOH)2      C4H9,n-butyl    C4H9,i-butyl    C4H9,s-butyl    C4H9,t-butyl   
 C4H10,n-butane  C4H10,isobutane *C5             C5H6,1,3cyclo-  C5H8,cyclo-    
 C5H10,1-pentene C5H10,cyclo-    C5H11,pentyl    C5H11,t-pentyl  C5H12,n-pentane
 C5H12,i-pentane CH3C(CH3)2CH3   C6H2            C6H5,phenyl     C6H5O,phenoxy  
 C6H6            C6H5OH,phenol   C6H10,cyclo-    C6H12,1-hexene  C6H12,cyclo-   
 C6H13,n-hexyl   C6H14,n-hexane  C7H7,benzyl     C7H8            C7H8O,cresol-mx
 C7H14,1-heptene C7H15,n-heptyl  C7H16,n-heptane C7H16,2-methylh C8H8,styrene   
 C8H10,ethylbenz C8H16,1-octene  C8H17,n-octyl   C8H18,n-octane  C8H18,isooctane
 C9H19,n-nonyl   C10H8,naphthale C10H21,n-decyl  C12H9,o-bipheny C12H10,biphenyl
 HCCO            HCHO,formaldehy HCOOH           H2O2            (HCOOH)2       
 O3              C(gr)           H2O(cr)         H2O(L)         

 NOTE. WEIGHT FRACTION OF FUEL IN TOTAL FUELS AND OF OXIDANT IN TOTAL OXIDANTS






 WARNING!!  ASSIGNED pip =   0.00000 IS NOT PERMITTED
 TO BE LESS THAN  Pinj/Pc =  1.00225. POINT OMITTED (ROCKET)





              THEORETICAL ROCKET PERFORMANCE ASSUMING EQUILIBRIUM

            COMPOSITION DURING EXPANSION FROM FINITE AREA COMBUSTOR

 Pin =   188.5 PSIA
 Ac/At = 13.4268      Pinj/Pinf =  1.001124
 CASE =                

             REACTANT                    WT FRACTION      ENERGY      TEMP
                                          (SEE NOTE)     KJ/KG-MOL      K  
 OXIDANT     O2                           0.9814677      2001.294    365.800
 OXIDANT     H2O                          0.0111194   -239541.240    365.800
 OXIDANT     CO2                          0.0074129   -390897.691    365.800
 FUEL        PMMA                         1.0000000   -442140.000    293.150

 O/F=    1.26207  %FUEL= 44.207345  R,EQ.RATIO= 1.430429  PHI,EQ.RATIO= 1.548188

                 INJECTOR  COMB END  THROAT
 Pinj/P            1.0000   1.0023   1.7378
 P, BAR            13.000   12.971   7.4809
 T, K             3199.60  3199.13  3024.31
 RHO, KG/CU M    1.1695 0 1.1671 0 7.2003-1
 H, KJ/KG        -2037.30 -2038.55 -2630.10
 U, KJ/KG        -3148.85 -3149.92 -3669.07
 G, KJ/KG        -38296.1 -38293.2 -36903.6
 S, KJ/(KG)(K)    11.3323  11.3327  11.3327

 M, (1/n)          23.933   23.934   24.202
 (dLV/dLP)t      -1.02235 -1.02234 -1.01607
 (dLV/dLT)p        1.4392   1.4391   1.3338
 Cp, KJ/(KG)(K)    5.0004   5.0002   4.3737
 GAMMAs            1.1384   1.1384   1.1411
 SON VEL,M/SEC     1124.9   1124.8   1088.9
 MACH NUMBER        0.000    0.044    1.000

 PERFORMANCE PARAMETERS

 Ae/At                      13.428   1.0000
 CSTAR, M/SEC               1656.3   1656.3
 CF                         0.0302   0.6574
 Ivac, M/SEC               22265.5   2043.0
 Isp, M/SEC                   50.0   1088.9


 MOLE FRACTIONS

 *CO              0.37438  0.37437  0.37048
 *CO2             0.15626  0.15628  0.16613
 *H               0.02400  0.02400  0.01924
 HCO              0.00001  0.00001  0.00000
 HO2              0.00001  0.00001  0.00001
 *H2              0.09478  0.09478  0.09546
 H2O              0.30804  0.30806  0.31895
 *O               0.00452  0.00452  0.00266
 *OH              0.03224  0.03223  0.02355
 *O2              0.00574  0.00574  0.00352

  * THERMODYNAMIC PROPERTIES FITTED TO 20000.K

    PRODUCTS WHICH WERE CONSIDERED BUT WHOSE MOLE FRACTIONS
    WERE LESS THAN 5.000000E-06 FOR ALL ASSIGNED CONDITIONS

 *C              *CH             CH2             CH3             CH2OH          
 CH3O            CH4             CH3OH           CH3OOH          COOH           
 *C2             C2H             C2H2,acetylene  C2H2,vinylidene CH2CO,ketene   
 O(CH)2O         HO(CO)2OH       C2H3,vinyl      CH3CO,acetyl    C2H4           
 C2H4O,ethylen-o CH3CHO,ethanal  CH3COOH         OHCH2COOH       C2H5           
 C2H6            C2H5OH          CH3OCH3         CH3O2CH3        C2O            
 *C3             C3H3,1-propynl  C3H3,2-propynl  C3H4,allene     C3H4,propyne   
 C3H4,cyclo-     C3H5,allyl      C3H6,propylene  C3H6,cyclo-     C3H6O,propylox 
 C3H6O,acetone   C3H6O,propanal  C3H7,n-propyl   C3H7,i-propyl   C3H8           
 C3H8O,1propanol C3H8O,2propanol C3O2            *C4             C4H2,butadiyne 
 C4H4,1,3-cyclo- C4H6,butadiene  C4H6,1butyne    C4H6,2butyne    C4H6,cyclo-    
 C4H8,1-butene   C4H8,cis2-buten C4H8,tr2-butene C4H8,isobutene  C4H8,cyclo-    
 (CH3COOH)2      C4H9,n-butyl    C4H9,i-butyl    C4H9,s-butyl    C4H9,t-butyl   
 C4H10,n-butane  C4H10,isobutane *C5             C5H6,1,3cyclo-  C5H8,cyclo-    
 C5H10,1-pentene C5H10,cyclo-    C5H11,pentyl    C5H11,t-pentyl  C5H12,n-pentane
 C5H12,i-pentane CH3C(CH3)2CH3   C6H2            C6H5,phenyl     C6H5O,phenoxy  
 C6H6            C6H5OH,phenol   C6H10,cyclo-    C6H12,1-hexene  C6H12,cyclo-   
 C6H13,n-hexyl   C6H14,n-hexane  C7H7,benzyl     C7H8            C7H8O,cresol-mx
 C7H14,1-heptene C7H15,n-heptyl  C7H16,n-heptane C7H16,2-methylh C8H8,styrene   
 C8H10,ethylbenz C8H16,1-octene  C8H17,n-octyl   C8H18,n-octane  C8H18,isooctane
 C9H19,n-nonyl   C10H8,naphthale C10H21,n-decyl  C12H9,o-bipheny C12H10,biphenyl
 HCCO            HCHO,formaldehy HCOOH           H2O2            (HCOOH)2       
 O3              C(gr)           H2O(cr)         H2O(L)         

 NOTE. WEIGHT FRACTION OF FUEL IN TOTAL FUELS AND OF OXIDANT IN TOTAL OXIDANTS






 WARNING!!  ASSIGNED pip =   0.00000 IS NOT PERMITTED
 TO BE LESS THAN  Pinj/Pc =  1.00225. POINT OMITTED (ROCKET)





              THEORETICAL ROCKET PERFORMANCE ASSUMING EQUILIBRIUM

            COMPOSITION DURING EXPANSION FROM FINITE AREA COMBUSTOR

 Pin =   188.5 PSIA
 Ac/At = 13.4268      Pinj/Pinf =  1.001124
 CASE =                

             REACTANT                    WT FRACTION      ENERGY      TEMP
                                          (SEE NOTE)     KJ/KG-MOL      K  
 OXIDANT     O2                           0.9814677      2001.294    365.800
 OXIDANT     H2O                          0.0111194   -239541.240    365.800
 OXIDANT     CO2                          0.0074129   -390897.691    365.800
 FUEL        PMMA                         1.0000000   -442140.000    293.150

 O/F=    1.26207  %FUEL= 44.207345  R,EQ.RATIO= 1.430429  PHI,EQ.RATIO= 1.548188

                 INJECTOR  COMB END  THROAT
 Pinj/P            1.0000   1.0023   1.7378
 P, BAR            13.000   12.971   7.4809
 T, K             3199.60  3199.13  3024.31
 RHO, KG/CU M    1.1695 0 1.1671 0 7.2003-1
 H, KJ/KG        -2037.30 -2038.55 -2630.10
 U, KJ/KG        -3148.85 -3149.92 -3669.07
 G, KJ/KG        -38296.1 -38293.2 -36903.6
 S, KJ/(KG)(K)    11.3323  11.3327  11.3327

 M, (1/n)          23.933   23.934   24.202
 (dLV/dLP)t      -1.02235 -1.02234 -1.01607
 (dLV/dLT)p        1.4392   1.4391   1.3338
 Cp, KJ/(KG)(K)    5.0004   5.0002   4.3737
 GAMMAs            1.1384   1.1384   1.1411
 SON VEL,M/SEC     1124.9   1124.8   1088.9
 MACH NUMBER        0.000    0.044    1.000

 PERFORMANCE PARAMETERS

 Ae/At                      13.428   1.0000
 CSTAR, M/SEC               1656.3   1656.3
 CF                         0.0302   0.6574
 Ivac, M/SEC               22265.5   2043.0
 Isp, M/SEC                   50.0   1088.9


 MOLE FRACTIONS

 *CO              0.37438  0.37437  0.37048
 *CO2             0.15626  0.15628  0.16613
 *H               0.02400  0.02400  0.01924
 HCO              0.00001  0.00001  0.00000
 HO2              0.00001  0.00001  0.00001
 *H2              0.09478  0.09478  0.09546
 H2O              0.30804  0.30806  0.31895
 *O               0.00452  0.00452  0.00266
 *OH              0.03224  0.03223  0.02355
 *O2              0.00574  0.00574  0.00352

  * THERMODYNAMIC PROPERTIES FITTED TO 20000.K

    PRODUCTS WHICH WERE CONSIDERED BUT WHOSE MOLE FRACTIONS
    WERE LESS THAN 5.000000E-06 FOR ALL ASSIGNED CONDITIONS

 *C              *CH             CH2             CH3             CH2OH          
 CH3O            CH4             CH3OH           CH3OOH          COOH           
 *C2             C2H             C2H2,acetylene  C2H2,vinylidene CH2CO,ketene   
 O(CH)2O         HO(CO)2OH       C2H3,vinyl      CH3CO,acetyl    C2H4           
 C2H4O,ethylen-o CH3CHO,ethanal  CH3COOH         OHCH2COOH       C2H5           
 C2H6            C2H5OH          CH3OCH3         CH3O2CH3        C2O            
 *C3             C3H3,1-propynl  C3H3,2-propynl  C3H4,allene     C3H4,propyne   
 C3H4,cyclo-     C3H5,allyl      C3H6,propylene  C3H6,cyclo-     C3H6O,propylox 
 C3H6O,acetone   C3H6O,propanal  C3H7,n-propyl   C3H7,i-propyl   C3H8           
 C3H8O,1propanol C3H8O,2propanol C3O2            *C4             C4H2,butadiyne 
 C4H4,1,3-cyclo- C4H6,butadiene  C4H6,1butyne    C4H6,2butyne    C4H6,cyclo-    
 C4H8,1-butene   C4H8,cis2-buten C4H8,tr2-butene C4H8,isobutene  C4H8,cyclo-    
 (CH3COOH)2      C4H9,n-butyl    C4H9,i-butyl    C4H9,s-butyl    C4H9,t-butyl   
 C4H10,n-butane  C4H10,isobutane *C5             C5H6,1,3cyclo-  C5H8,cyclo-    
 C5H10,1-pentene C5H10,cyclo-    C5H11,pentyl    C5H11,t-pentyl  C5H12,n-pentane
 C5H12,i-pentane CH3C(CH3)2CH3   C6H2            C6H5,phenyl     C6H5O,phenoxy  
 C6H6            C6H5OH,phenol   C6H10,cyclo-    C6H12,1-hexene  C6H12,cyclo-   
 C6H13,n-hexyl   C6H14,n-hexane  C7H7,benzyl     C7H8            C7H8O,cresol-mx
 C7H14,1-heptene C7H15,n-heptyl  C7H16,n-heptane C7H16,2-methylh C8H8,styrene   
 C8H10,ethylbenz C8H16,1-octene  C8H17,n-octyl   C8H18,n-octane  C8H18,isooctane
 C9H19,n-nonyl   C10H8,naphthale C10H21,n-decyl  C12H9,o-bipheny C12H10,biphenyl
 HCCO            HCHO,formaldehy HCOOH           H2O2            (HCOOH)2       
 O3              C(gr)           H2O(cr)         H2O(L)         

 NOTE. WEIGHT FRACTION OF FUEL IN TOTAL FUELS AND OF OXIDANT IN TOTAL OXIDANTS






 WARNING!!  ASSIGNED pip =   0.00000 IS NOT PERMITTED
 TO BE LESS THAN  Pinj/Pc =  1.00225. POINT OMITTED (ROCKET)





              THEORETICAL ROCKET PERFORMANCE ASSUMING EQUILIBRIUM

            COMPOSITION DURING EXPANSION FROM FINITE AREA COMBUSTOR

 Pin =   188.5 PSIA
 Ac/At = 13.4268      Pinj/Pinf =  1.001124
 CASE =                

             REACTANT                    WT FRACTION      ENERGY      TEMP
                                          (SEE NOTE)     KJ/KG-MOL      K  
 OXIDANT     O2                           0.9814677      2001.294    365.800
 OXIDANT     H2O                          0.0111194   -239541.240    365.800
 OXIDANT     CO2                          0.0074129   -390897.691    365.800
 FUEL        PMMA                         1.0000000   -442140.000    293.150

 O/F=    1.26207  %FUEL= 44.207345  R,EQ.RATIO= 1.430429  PHI,EQ.RATIO= 1.548188

                 INJECTOR  COMB END  THROAT
 Pinj/P            1.0000   1.0023   1.7378
 P, BAR            13.000   12.971   7.4809
 T, K             3199.60  3199.13  3024.31
 RHO, KG/CU M    1.1695 0 1.1671 0 7.2003-1
 H, KJ/KG        -2037.30 -2038.55 -2630.10
 U, KJ/KG        -3148.85 -3149.92 -3669.07
 G, KJ/KG        -38296.1 -38293.2 -36903.6
 S, KJ/(KG)(K)    11.3323  11.3327  11.3327

 M, (1/n)          23.933   23.934   24.202
 (dLV/dLP)t      -1.02235 -1.02234 -1.01607
 (dLV/dLT)p        1.4392   1.4391   1.3338
 Cp, KJ/(KG)(K)    5.0004   5.0002   4.3737
 GAMMAs            1.1384   1.1384   1.1411
 SON VEL,M/SEC     1124.9   1124.8   1088.9
 MACH NUMBER        0.000    0.044    1.000

 PERFORMANCE PARAMETERS

 Ae/At                      13.428   1.0000
 CSTAR, M/SEC               1656.3   1656.3
 CF                         0.0302   0.6574
 Ivac, M/SEC               22265.5   2043.0
 Isp, M/SEC                   50.0   1088.9


 MOLE FRACTIONS

 *CO              0.37438  0.37437  0.37048
 *CO2             0.15626  0.15628  0.16613
 *H               0.02400  0.02400  0.01924
 HCO              0.00001  0.00001  0.00000
 HO2              0.00001  0.00001  0.00001
 *H2              0.09478  0.09478  0.09546
 H2O              0.30804  0.30806  0.31895
 *O               0.00452  0.00452  0.00266
 *OH              0.03224  0.03223  0.02355
 *O2              0.00574  0.00574  0.00352

  * THERMODYNAMIC PROPERTIES FITTED TO 20000.K

    PRODUCTS WHICH WERE CONSIDERED BUT WHOSE MOLE FRACTIONS
    WERE LESS THAN 5.000000E-06 FOR ALL ASSIGNED CONDITIONS

 *C              *CH             CH2             CH3             CH2OH          
 CH3O            CH4             CH3OH           CH3OOH          COOH           
 *C2             C2H             C2H2,acetylene  C2H2,vinylidene CH2CO,ketene   
 O(CH)2O         HO(CO)2OH       C2H3,vinyl      CH3CO,acetyl    C2H4           
 C2H4O,ethylen-o CH3CHO,ethanal  CH3COOH         OHCH2COOH       C2H5           
 C2H6            C2H5OH          CH3OCH3         CH3O2CH3        C2O            
 *C3             C3H3,1-propynl  C3H3,2-propynl  C3H4,allene     C3H4,propyne   
 C3H4,cyclo-     C3H5,allyl      C3H6,propylene  C3H6,cyclo-     C3H6O,propylox 
 C3H6O,acetone   C3H6O,propanal  C3H7,n-propyl   C3H7,i-propyl   C3H8           
 C3H8O,1propanol C3H8O,2propanol C3O2            *C4             C4H2,butadiyne 
 C4H4,1,3-cyclo- C4H6,butadiene  C4H6,1butyne    C4H6,2butyne    C4H6,cyclo-    
 C4H8,1-butene   C4H8,cis2-buten C4H8,tr2-butene C4H8,isobutene  C4H8,cyclo-    
 (CH3COOH)2      C4H9,n-butyl    C4H9,i-butyl    C4H9,s-butyl    C4H9,t-butyl   
 C4H10,n-butane  C4H10,isobutane *C5             C5H6,1,3cyclo-  C5H8,cyclo-    
 C5H10,1-pentene C5H10,cyclo-    C5H11,pentyl    C5H11,t-pentyl  C5H12,n-pentane
 C5H12,i-pentane CH3C(CH3)2CH3   C6H2            C6H5,phenyl     C6H5O,phenoxy  
 C6H6            C6H5OH,phenol   C6H10,cyclo-    C6H12,1-hexene  C6H12,cyclo-   
 C6H13,n-hexyl   C6H14,n-hexane  C7H7,benzyl     C7H8            C7H8O,cresol-mx
 C7H14,1-heptene C7H15,n-heptyl  C7H16,n-heptane C7H16,2-methylh C8H8,styrene   
 C8H10,ethylbenz C8H16,1-octene  C8H17,n-octyl   C8H18,n-octane  C8H18,isooctane
 C9H19,n-nonyl   C10H8,naphthale C10H21,n-decyl  C12H9,o-bipheny C12H10,biphenyl
 HCCO            HCHO,formaldehy HCOOH           H2O2            (HCOOH)2       
 O3              C(gr)           H2O(cr)         H2O(L)         

 NOTE. WEIGHT FRACTION OF FUEL IN TOTAL FUELS AND OF OXIDANT IN TOTAL OXIDANTS






 WARNING!!  ASSIGNED pip =   0.00000 IS NOT PERMITTED
 TO BE LESS THAN  Pinj/Pc =  1.00225. POINT OMITTED (ROCKET)





              THEORETICAL ROCKET PERFORMANCE ASSUMING EQUILIBRIUM

            COMPOSITION DURING EXPANSION FROM FINITE AREA COMBUSTOR

 Pin =   188.5 PSIA
 Ac/At = 13.4268      Pinj/Pinf =  1.001124
 CASE =                

             REACTANT                    WT FRACTION      ENERGY      TEMP
                                          (SEE NOTE)     KJ/KG-MOL      K  
 OXIDANT     O2                           0.9814677      2001.294    365.800
 OXIDANT     H2O                          0.0111194   -239541.240    365.800
 OXIDANT     CO2                          0.0074129   -390897.691    365.800
 FUEL        PMMA                         1.0000000   -442140.000    293.150

 O/F=    1.26207  %FUEL= 44.207345  R,EQ.RATIO= 1.430429  PHI,EQ.RATIO= 1.548188

                 INJECTOR  COMB END  THROAT
 Pinj/P            1.0000   1.0023   1.7378
 P, BAR            13.000   12.971   7.4809
 T, K             3199.60  3199.13  3024.31
 RHO, KG/CU M    1.1695 0 1.1671 0 7.2003-1
 H, KJ/KG        -2037.30 -2038.55 -2630.10
 U, KJ/KG        -3148.85 -3149.92 -3669.07
 G, KJ/KG        -38296.1 -38293.2 -36903.6
 S, KJ/(KG)(K)    11.3323  11.3327  11.3327

 M, (1/n)          23.933   23.934   24.202
 (dLV/dLP)t      -1.02235 -1.02234 -1.01607
 (dLV/dLT)p        1.4392   1.4391   1.3338
 Cp, KJ/(KG)(K)    5.0004   5.0002   4.3737
 GAMMAs            1.1384   1.1384   1.1411
 SON VEL,M/SEC     1124.9   1124.8   1088.9
 MACH NUMBER        0.000    0.044    1.000

 PERFORMANCE PARAMETERS

 Ae/At                      13.428   1.0000
 CSTAR, M/SEC               1656.3   1656.3
 CF                         0.0302   0.6574
 Ivac, M/SEC               22265.5   2043.0
 Isp, M/SEC                   50.0   1088.9


 MOLE FRACTIONS

 *CO              0.37438  0.37437  0.37048
 *CO2             0.15626  0.15628  0.16613
 *H               0.02400  0.02400  0.01924
 HCO              0.00001  0.00001  0.00000
 HO2              0.00001  0.00001  0.00001
 *H2              0.09478  0.09478  0.09546
 H2O              0.30804  0.30806  0.31895
 *O               0.00452  0.00452  0.00266
 *OH              0.03224  0.03223  0.02355
 *O2              0.00574  0.00574  0.00352

  * THERMODYNAMIC PROPERTIES FITTED TO 20000.K

    PRODUCTS WHICH WERE CONSIDERED BUT WHOSE MOLE FRACTIONS
    WERE LESS THAN 5.000000E-06 FOR ALL ASSIGNED CONDITIONS

 *C              *CH             CH2             CH3             CH2OH          
 CH3O            CH4             CH3OH           CH3OOH          COOH           
 *C2             C2H             C2H2,acetylene  C2H2,vinylidene CH2CO,ketene   
 O(CH)2O         HO(CO)2OH       C2H3,vinyl      CH3CO,acetyl    C2H4           
 C2H4O,ethylen-o CH3CHO,ethanal  CH3COOH         OHCH2COOH       C2H5           
 C2H6            C2H5OH          CH3OCH3         CH3O2CH3        C2O            
 *C3             C3H3,1-propynl  C3H3,2-propynl  C3H4,allene     C3H4,propyne   
 C3H4,cyclo-     C3H5,allyl      C3H6,propylene  C3H6,cyclo-     C3H6O,propylox 
 C3H6O,acetone   C3H6O,propanal  C3H7,n-propyl   C3H7,i-propyl   C3H8           
 C3H8O,1propanol C3H8O,2propanol C3O2            *C4             C4H2,butadiyne 
 C4H4,1,3-cyclo- C4H6,butadiene  C4H6,1butyne    C4H6,2butyne    C4H6,cyclo-    
 C4H8,1-butene   C4H8,cis2-buten C4H8,tr2-butene C4H8,isobutene  C4H8,cyclo-    
 (CH3COOH)2      C4H9,n-butyl    C4H9,i-butyl    C4H9,s-butyl    C4H9,t-butyl   
 C4H10,n-butane  C4H10,isobutane *C5             C5H6,1,3cyclo-  C5H8,cyclo-    
 C5H10,1-pentene C5H10,cyclo-    C5H11,pentyl    C5H11,t-pentyl  C5H12,n-pentane
 C5H12,i-pentane CH3C(CH3)2CH3   C6H2            C6H5,phenyl     C6H5O,phenoxy  
 C6H6            C6H5OH,phenol   C6H10,cyclo-    C6H12,1-hexene  C6H12,cyclo-   
 C6H13,n-hexyl   C6H14,n-hexane  C7H7,benzyl     C7H8            C7H8O,cresol-mx
 C7H14,1-heptene C7H15,n-heptyl  C7H16,n-heptane C7H16,2-methylh C8H8,styrene   
 C8H10,ethylbenz C8H16,1-octene  C8H17,n-octyl   C8H18,n-octane  C8H18,isooctane
 C9H19,n-nonyl   C10H8,naphthale C10H21,n-decyl  C12H9,o-bipheny C12H10,biphenyl
 HCCO            HCHO,formaldehy HCOOH           H2O2            (HCOOH)2       
 O3              C(gr)           H2O(cr)         H2O(L)         

 NOTE. WEIGHT FRACTION OF FUEL IN TOTAL FUELS AND OF OXIDANT IN TOTAL OXIDANTS






 WARNING!!  ASSIGNED pip =   0.00000 IS NOT PERMITTED
 TO BE LESS THAN  Pinj/Pc =  1.00225. POINT OMITTED (ROCKET)





              THEORETICAL ROCKET PERFORMANCE ASSUMING EQUILIBRIUM

            COMPOSITION DURING EXPANSION FROM FINITE AREA COMBUSTOR

 Pin =   188.5 PSIA
 Ac/At = 13.4268      Pinj/Pinf =  1.001124
 CASE =                

             REACTANT                    WT FRACTION      ENERGY      TEMP
                                          (SEE NOTE)     KJ/KG-MOL      K  
 OXIDANT     O2                           0.9814677      2001.294    365.800
 OXIDANT     H2O                          0.0111194   -239541.240    365.800
 OXIDANT     CO2                          0.0074129   -390897.691    365.800
 FUEL        PMMA                         1.0000000   -442140.000    293.150

 O/F=    1.26207  %FUEL= 44.207345  R,EQ.RATIO= 1.430429  PHI,EQ.RATIO= 1.548188

                 INJECTOR  COMB END  THROAT
 Pinj/P            1.0000   1.0023   1.7378
 P, BAR            13.000   12.971   7.4809
 T, K             3199.60  3199.13  3024.31
 RHO, KG/CU M    1.1695 0 1.1671 0 7.2003-1
 H, KJ/KG        -2037.30 -2038.55 -2630.10
 U, KJ/KG        -3148.85 -3149.92 -3669.07
 G, KJ/KG        -38296.1 -38293.2 -36903.6
 S, KJ/(KG)(K)    11.3323  11.3327  11.3327

 M, (1/n)          23.933   23.934   24.202
 (dLV/dLP)t      -1.02235 -1.02234 -1.01607
 (dLV/dLT)p        1.4392   1.4391   1.3338
 Cp, KJ/(KG)(K)    5.0004   5.0002   4.3737
 GAMMAs            1.1384   1.1384   1.1411
 SON VEL,M/SEC     1124.9   1124.8   1088.9
 MACH NUMBER        0.000    0.044    1.000

 PERFORMANCE PARAMETERS

 Ae/At                      13.428   1.0000
 CSTAR, M/SEC               1656.3   1656.3
 CF                         0.0302   0.6574
 Ivac, M/SEC               22265.5   2043.0
 Isp, M/SEC                   50.0   1088.9


 MOLE FRACTIONS

 *CO              0.37438  0.37437  0.37048
 *CO2             0.15626  0.15628  0.16613
 *H               0.02400  0.02400  0.01924
 HCO              0.00001  0.00001  0.00000
 HO2              0.00001  0.00001  0.00001
 *H2              0.09478  0.09478  0.09546
 H2O              0.30804  0.30806  0.31895
 *O               0.00452  0.00452  0.00266
 *OH              0.03224  0.03223  0.02355
 *O2              0.00574  0.00574  0.00352

  * THERMODYNAMIC PROPERTIES FITTED TO 20000.K

    PRODUCTS WHICH WERE CONSIDERED BUT WHOSE MOLE FRACTIONS
    WERE LESS THAN 5.000000E-06 FOR ALL ASSIGNED CONDITIONS

 *C              *CH             CH2             CH3             CH2OH          
 CH3O            CH4             CH3OH           CH3OOH          COOH           
 *C2             C2H             C2H2,acetylene  C2H2,vinylidene CH2CO,ketene   
 O(CH)2O         HO(CO)2OH       C2H3,vinyl      CH3CO,acetyl    C2H4           
 C2H4O,ethylen-o CH3CHO,ethanal  CH3COOH         OHCH2COOH       C2H5           
 C2H6            C2H5OH          CH3OCH3         CH3O2CH3        C2O            
 *C3             C3H3,1-propynl  C3H3,2-propynl  C3H4,allene     C3H4,propyne   
 C3H4,cyclo-     C3H5,allyl      C3H6,propylene  C3H6,cyclo-     C3H6O,propylox 
 C3H6O,acetone   C3H6O,propanal  C3H7,n-propyl   C3H7,i-propyl   C3H8           
 C3H8O,1propanol C3H8O,2propanol C3O2            *C4             C4H2,butadiyne 
 C4H4,1,3-cyclo- C4H6,butadiene  C4H6,1butyne    C4H6,2butyne    C4H6,cyclo-    
 C4H8,1-butene   C4H8,cis2-buten C4H8,tr2-butene C4H8,isobutene  C4H8,cyclo-    
 (CH3COOH)2      C4H9,n-butyl    C4H9,i-butyl    C4H9,s-butyl    C4H9,t-butyl   
 C4H10,n-butane  C4H10,isobutane *C5             C5H6,1,3cyclo-  C5H8,cyclo-    
 C5H10,1-pentene C5H10,cyclo-    C5H11,pentyl    C5H11,t-pentyl  C5H12,n-pentane
 C5H12,i-pentane CH3C(CH3)2CH3   C6H2            C6H5,phenyl     C6H5O,phenoxy  
 C6H6            C6H5OH,phenol   C6H10,cyclo-    C6H12,1-hexene  C6H12,cyclo-   
 C6H13,n-hexyl   C6H14,n-hexane  C7H7,benzyl     C7H8            C7H8O,cresol-mx
 C7H14,1-heptene C7H15,n-heptyl  C7H16,n-heptane C7H16,2-methylh C8H8,styrene   
 C8H10,ethylbenz C8H16,1-octene  C8H17,n-octyl   C8H18,n-octane  C8H18,isooctane
 C9H19,n-nonyl   C10H8,naphthale C10H21,n-decyl  C12H9,o-bipheny C12H10,biphenyl
 HCCO            HCHO,formaldehy HCOOH           H2O2            (HCOOH)2       
 O3              C(gr)           H2O(cr)         H2O(L)         

 NOTE. WEIGHT FRACTION OF FUEL IN TOTAL FUELS AND OF OXIDANT IN TOTAL OXIDANTS






 WARNING!!  ASSIGNED pip =   0.00000 IS NOT PERMITTED
 TO BE LESS THAN  Pinj/Pc =  1.00225. POINT OMITTED (ROCKET)





              THEORETICAL ROCKET PERFORMANCE ASSUMING EQUILIBRIUM

            COMPOSITION DURING EXPANSION FROM FINITE AREA COMBUSTOR

 Pin =   188.5 PSIA
 Ac/At = 13.4268      Pinj/Pinf =  1.001124
 CASE =                

             REACTANT                    WT FRACTION      ENERGY      TEMP
                                          (SEE NOTE)     KJ/KG-MOL      K  
 OXIDANT     O2                           0.9814677      2001.294    365.800
 OXIDANT     H2O                          0.0111194   -239541.240    365.800
 OXIDANT     CO2                          0.0074129   -390897.691    365.800
 FUEL        PMMA                         1.0000000   -442140.000    293.150

 O/F=    1.26207  %FUEL= 44.207345  R,EQ.RATIO= 1.430429  PHI,EQ.RATIO= 1.548188

                 INJECTOR  COMB END  THROAT
 Pinj/P            1.0000   1.0023   1.7378
 P, BAR            13.000   12.971   7.4809
 T, K             3199.60  3199.13  3024.31
 RHO, KG/CU M    1.1695 0 1.1671 0 7.2003-1
 H, KJ/KG        -2037.30 -2038.55 -2630.10
 U, KJ/KG        -3148.85 -3149.92 -3669.07
 G, KJ/KG        -38296.1 -38293.2 -36903.6
 S, KJ/(KG)(K)    11.3323  11.3327  11.3327

 M, (1/n)          23.933   23.934   24.202
 (dLV/dLP)t      -1.02235 -1.02234 -1.01607
 (dLV/dLT)p        1.4392   1.4391   1.3338
 Cp, KJ/(KG)(K)    5.0004   5.0002   4.3737
 GAMMAs            1.1384   1.1384   1.1411
 SON VEL,M/SEC     1124.9   1124.8   1088.9
 MACH NUMBER        0.000    0.044    1.000

 PERFORMANCE PARAMETERS

 Ae/At                      13.428   1.0000
 CSTAR, M/SEC               1656.3   1656.3
 CF                         0.0302   0.6574
 Ivac, M/SEC               22265.5   2043.0
 Isp, M/SEC                   50.0   1088.9


 MOLE FRACTIONS

 *CO              0.37438  0.37437  0.37048
 *CO2             0.15626  0.15628  0.16613
 *H               0.02400  0.02400  0.01924
 HCO              0.00001  0.00001  0.00000
 HO2              0.00001  0.00001  0.00001
 *H2              0.09478  0.09478  0.09546
 H2O              0.30804  0.30806  0.31895
 *O               0.00452  0.00452  0.00266
 *OH              0.03224  0.03223  0.02355
 *O2              0.00574  0.00574  0.00352

  * THERMODYNAMIC PROPERTIES FITTED TO 20000.K

    PRODUCTS WHICH WERE CONSIDERED BUT WHOSE MOLE FRACTIONS
    WERE LESS THAN 5.000000E-06 FOR ALL ASSIGNED CONDITIONS

 *C              *CH             CH2             CH3             CH2OH          
 CH3O            CH4             CH3OH           CH3OOH          COOH           
 *C2             C2H             C2H2,acetylene  C2H2,vinylidene CH2CO,ketene   
 O(CH)2O         HO(CO)2OH       C2H3,vinyl      CH3CO,acetyl    C2H4           
 C2H4O,ethylen-o CH3CHO,ethanal  CH3COOH         OHCH2COOH       C2H5           
 C2H6            C2H5OH          CH3OCH3         CH3O2CH3        C2O            
 *C3             C3H3,1-propynl  C3H3,2-propynl  C3H4,allene     C3H4,propyne   
 C3H4,cyclo-     C3H5,allyl      C3H6,propylene  C3H6,cyclo-     C3H6O,propylox 
 C3H6O,acetone   C3H6O,propanal  C3H7,n-propyl   C3H7,i-propyl   C3H8           
 C3H8O,1propanol C3H8O,2propanol C3O2            *C4             C4H2,butadiyne 
 C4H4,1,3-cyclo- C4H6,butadiene  C4H6,1butyne    C4H6,2butyne    C4H6,cyclo-    
 C4H8,1-butene   C4H8,cis2-buten C4H8,tr2-butene C4H8,isobutene  C4H8,cyclo-    
 (CH3COOH)2      C4H9,n-butyl    C4H9,i-butyl    C4H9,s-butyl    C4H9,t-butyl   
 C4H10,n-butane  C4H10,isobutane *C5             C5H6,1,3cyclo-  C5H8,cyclo-    
 C5H10,1-pentene C5H10,cyclo-    C5H11,pentyl    C5H11,t-pentyl  C5H12,n-pentane
 C5H12,i-pentane CH3C(CH3)2CH3   C6H2            C6H5,phenyl     C6H5O,phenoxy  
 C6H6            C6H5OH,phenol   C6H10,cyclo-    C6H12,1-hexene  C6H12,cyclo-   
 C6H13,n-hexyl   C6H14,n-hexane  C7H7,benzyl     C7H8            C7H8O,cresol-mx
 C7H14,1-heptene C7H15,n-heptyl  C7H16,n-heptane C7H16,2-methylh C8H8,styrene   
 C8H10,ethylbenz C8H16,1-octene  C8H17,n-octyl   C8H18,n-octane  C8H18,isooctane
 C9H19,n-nonyl   C10H8,naphthale C10H21,n-decyl  C12H9,o-bipheny C12H10,biphenyl
 HCCO            HCHO,formaldehy HCOOH           H2O2            (HCOOH)2       
 O3              C(gr)           H2O(cr)         H2O(L)         

 NOTE. WEIGHT FRACTION OF FUEL IN TOTAL FUELS AND OF OXIDANT IN TOTAL OXIDANTS






 WARNING!!  ASSIGNED pip =   0.00000 IS NOT PERMITTED
 TO BE LESS THAN  Pinj/Pc =  1.00225. POINT OMITTED (ROCKET)





              THEORETICAL ROCKET PERFORMANCE ASSUMING EQUILIBRIUM

            COMPOSITION DURING EXPANSION FROM FINITE AREA COMBUSTOR

 Pin =   188.5 PSIA
 Ac/At = 13.4268      Pinj/Pinf =  1.001124
 CASE =                

             REACTANT                    WT FRACTION      ENERGY      TEMP
                                          (SEE NOTE)     KJ/KG-MOL      K  
 OXIDANT     O2                           0.9814677      2001.294    365.800
 OXIDANT     H2O                          0.0111194   -239541.240    365.800
 OXIDANT     CO2                          0.0074129   -390897.691    365.800
 FUEL        PMMA                         1.0000000   -442140.000    293.150

 O/F=    1.26207  %FUEL= 44.207345  R,EQ.RATIO= 1.430429  PHI,EQ.RATIO= 1.548188

                 INJECTOR  COMB END  THROAT
 Pinj/P            1.0000   1.0023   1.7378
 P, BAR            13.000   12.971   7.4809
 T, K             3199.60  3199.13  3024.31
 RHO, KG/CU M    1.1695 0 1.1671 0 7.2003-1
 H, KJ/KG        -2037.30 -2038.55 -2630.10
 U, KJ/KG        -3148.85 -3149.92 -3669.07
 G, KJ/KG        -38296.1 -38293.2 -36903.6
 S, KJ/(KG)(K)    11.3323  11.3327  11.3327

 M, (1/n)          23.933   23.934   24.202
 (dLV/dLP)t      -1.02235 -1.02234 -1.01607
 (dLV/dLT)p        1.4392   1.4391   1.3338
 Cp, KJ/(KG)(K)    5.0004   5.0002   4.3737
 GAMMAs            1.1384   1.1384   1.1411
 SON VEL,M/SEC     1124.9   1124.8   1088.9
 MACH NUMBER        0.000    0.044    1.000

 PERFORMANCE PARAMETERS

 Ae/At                      13.428   1.0000
 CSTAR, M/SEC               1656.3   1656.3
 CF                         0.0302   0.6574
 Ivac, M/SEC               22265.5   2043.0
 Isp, M/SEC                   50.0   1088.9


 MOLE FRACTIONS

 *CO              0.37438  0.37437  0.37048
 *CO2             0.15626  0.15628  0.16613
 *H               0.02400  0.02400  0.01924
 HCO              0.00001  0.00001  0.00000
 HO2              0.00001  0.00001  0.00001
 *H2              0.09478  0.09478  0.09546
 H2O              0.30804  0.30806  0.31895
 *O               0.00452  0.00452  0.00266
 *OH              0.03224  0.03223  0.02355
 *O2              0.00574  0.00574  0.00352

  * THERMODYNAMIC PROPERTIES FITTED TO 20000.K

    PRODUCTS WHICH WERE CONSIDERED BUT WHOSE MOLE FRACTIONS
    WERE LESS THAN 5.000000E-06 FOR ALL ASSIGNED CONDITIONS

 *C              *CH             CH2             CH3             CH2OH          
 CH3O            CH4             CH3OH           CH3OOH          COOH           
 *C2             C2H             C2H2,acetylene  C2H2,vinylidene CH2CO,ketene   
 O(CH)2O         HO(CO)2OH       C2H3,vinyl      CH3CO,acetyl    C2H4           
 C2H4O,ethylen-o CH3CHO,ethanal  CH3COOH         OHCH2COOH       C2H5           
 C2H6            C2H5OH          CH3OCH3         CH3O2CH3        C2O            
 *C3             C3H3,1-propynl  C3H3,2-propynl  C3H4,allene     C3H4,propyne   
 C3H4,cyclo-     C3H5,allyl      C3H6,propylene  C3H6,cyclo-     C3H6O,propylox 
 C3H6O,acetone   C3H6O,propanal  C3H7,n-propyl   C3H7,i-propyl   C3H8           
 C3H8O,1propanol C3H8O,2propanol C3O2            *C4             C4H2,butadiyne 
 C4H4,1,3-cyclo- C4H6,butadiene  C4H6,1butyne    C4H6,2butyne    C4H6,cyclo-    
 C4H8,1-butene   C4H8,cis2-buten C4H8,tr2-butene C4H8,isobutene  C4H8,cyclo-    
 (CH3COOH)2      C4H9,n-butyl    C4H9,i-butyl    C4H9,s-butyl    C4H9,t-butyl   
 C4H10,n-butane  C4H10,isobutane *C5             C5H6,1,3cyclo-  C5H8,cyclo-    
 C5H10,1-pentene C5H10,cyclo-    C5H11,pentyl    C5H11,t-pentyl  C5H12,n-pentane
 C5H12,i-pentane CH3C(CH3)2CH3   C6H2            C6H5,phenyl     C6H5O,phenoxy  
 C6H6            C6H5OH,phenol   C6H10,cyclo-    C6H12,1-hexene  C6H12,cyclo-   
 C6H13,n-hexyl   C6H14,n-hexane  C7H7,benzyl     C7H8            C7H8O,cresol-mx
 C7H14,1-heptene C7H15,n-heptyl  C7H16,n-heptane C7H16,2-methylh C8H8,styrene   
 C8H10,ethylbenz C8H16,1-octene  C8H17,n-octyl   C8H18,n-octane  C8H18,isooctane
 C9H19,n-nonyl   C10H8,naphthale C10H21,n-decyl  C12H9,o-bipheny C12H10,biphenyl
 HCCO            HCHO,formaldehy HCOOH           H2O2            (HCOOH)2       
 O3              C(gr)           H2O(cr)         H2O(L)         

 NOTE. WEIGHT FRACTION OF FUEL IN TOTAL FUELS AND OF OXIDANT IN TOTAL OXIDANTS






 WARNING!!  ASSIGNED pip =   0.00000 IS NOT PERMITTED
 TO BE LESS THAN  Pinj/Pc =  1.00225. POINT OMITTED (ROCKET)





              THEORETICAL ROCKET PERFORMANCE ASSUMING EQUILIBRIUM

            COMPOSITION DURING EXPANSION FROM FINITE AREA COMBUSTOR

 Pin =   188.5 PSIA
 Ac/At = 13.4268      Pinj/Pinf =  1.001124
 CASE =                

             REACTANT                    WT FRACTION      ENERGY      TEMP
                                          (SEE NOTE)     KJ/KG-MOL      K  
 OXIDANT     O2                           0.9814677      2001.294    365.800
 OXIDANT     H2O                          0.0111194   -239541.240    365.800
 OXIDANT     CO2                          0.0074129   -390897.691    365.800
 FUEL        PMMA                         1.0000000   -442140.000    293.150

 O/F=    1.26207  %FUEL= 44.207345  R,EQ.RATIO= 1.430429  PHI,EQ.RATIO= 1.548188

                 INJECTOR  COMB END  THROAT
 Pinj/P            1.0000   1.0023   1.7378
 P, BAR            13.000   12.971   7.4809
 T, K             3199.60  3199.13  3024.31
 RHO, KG/CU M    1.1695 0 1.1671 0 7.2003-1
 H, KJ/KG        -2037.30 -2038.55 -2630.10
 U, KJ/KG        -3148.85 -3149.92 -3669.07
 G, KJ/KG        -38296.1 -38293.2 -36903.6
 S, KJ/(KG)(K)    11.3323  11.3327  11.3327

 M, (1/n)          23.933   23.934   24.202
 (dLV/dLP)t      -1.02235 -1.02234 -1.01607
 (dLV/dLT)p        1.4392   1.4391   1.3338
 Cp, KJ/(KG)(K)    5.0004   5.0002   4.3737
 GAMMAs            1.1384   1.1384   1.1411
 SON VEL,M/SEC     1124.9   1124.8   1088.9
 MACH NUMBER        0.000    0.044    1.000

 PERFORMANCE PARAMETERS

 Ae/At                      13.428   1.0000
 CSTAR, M/SEC               1656.3   1656.3
 CF                         0.0302   0.6574
 Ivac, M/SEC               22265.5   2043.0
 Isp, M/SEC                   50.0   1088.9


 MOLE FRACTIONS

 *CO              0.37438  0.37437  0.37048
 *CO2             0.15626  0.15628  0.16613
 *H               0.02400  0.02400  0.01924
 HCO              0.00001  0.00001  0.00000
 HO2              0.00001  0.00001  0.00001
 *H2              0.09478  0.09478  0.09546
 H2O              0.30804  0.30806  0.31895
 *O               0.00452  0.00452  0.00266
 *OH              0.03224  0.03223  0.02355
 *O2              0.00574  0.00574  0.00352

  * THERMODYNAMIC PROPERTIES FITTED TO 20000.K

    PRODUCTS WHICH WERE CONSIDERED BUT WHOSE MOLE FRACTIONS
    WERE LESS THAN 5.000000E-06 FOR ALL ASSIGNED CONDITIONS

 *C              *CH             CH2             CH3             CH2OH          
 CH3O            CH4             CH3OH           CH3OOH          COOH           
 *C2             C2H             C2H2,acetylene  C2H2,vinylidene CH2CO,ketene   
 O(CH)2O         HO(CO)2OH       C2H3,vinyl      CH3CO,acetyl    C2H4           
 C2H4O,ethylen-o CH3CHO,ethanal  CH3COOH         OHCH2COOH       C2H5           
 C2H6            C2H5OH          CH3OCH3         CH3O2CH3        C2O            
 *C3             C3H3,1-propynl  C3H3,2-propynl  C3H4,allene     C3H4,propyne   
 C3H4,cyclo-     C3H5,allyl      C3H6,propylene  C3H6,cyclo-     C3H6O,propylox 
 C3H6O,acetone   C3H6O,propanal  C3H7,n-propyl   C3H7,i-propyl   C3H8           
 C3H8O,1propanol C3H8O,2propanol C3O2            *C4             C4H2,butadiyne 
 C4H4,1,3-cyclo- C4H6,butadiene  C4H6,1butyne    C4H6,2butyne    C4H6,cyclo-    
 C4H8,1-butene   C4H8,cis2-buten C4H8,tr2-butene C4H8,isobutene  C4H8,cyclo-    
 (CH3COOH)2      C4H9,n-butyl    C4H9,i-butyl    C4H9,s-butyl    C4H9,t-butyl   
 C4H10,n-butane  C4H10,isobutane *C5             C5H6,1,3cyclo-  C5H8,cyclo-    
 C5H10,1-pentene C5H10,cyclo-    C5H11,pentyl    C5H11,t-pentyl  C5H12,n-pentane
 C5H12,i-pentane CH3C(CH3)2CH3   C6H2            C6H5,phenyl     C6H5O,phenoxy  
 C6H6            C6H5OH,phenol   C6H10,cyclo-    C6H12,1-hexene  C6H12,cyclo-   
 C6H13,n-hexyl   C6H14,n-hexane  C7H7,benzyl     C7H8            C7H8O,cresol-mx
 C7H14,1-heptene C7H15,n-heptyl  C7H16,n-heptane C7H16,2-methylh C8H8,styrene   
 C8H10,ethylbenz C8H16,1-octene  C8H17,n-octyl   C8H18,n-octane  C8H18,isooctane
 C9H19,n-nonyl   C10H8,naphthale C10H21,n-decyl  C12H9,o-bipheny C12H10,biphenyl
 HCCO            HCHO,formaldehy HCOOH           H2O2            (HCOOH)2       
 O3              C(gr)           H2O(cr)         H2O(L)         

 NOTE. WEIGHT FRACTION OF FUEL IN TOTAL FUELS AND OF OXIDANT IN TOTAL OXIDANTS






 WARNING!!  ASSIGNED pip =   0.00000 IS NOT PERMITTED
 TO BE LESS THAN  Pinj/Pc =  1.00225. POINT OMITTED (ROCKET)





              THEORETICAL ROCKET PERFORMANCE ASSUMING EQUILIBRIUM

            COMPOSITION DURING EXPANSION FROM FINITE AREA COMBUSTOR

 Pin =   188.5 PSIA
 Ac/At = 13.4268      Pinj/Pinf =  1.001124
 CASE =                

             REACTANT                    WT FRACTION      ENERGY      TEMP
                                          (SEE NOTE)     KJ/KG-MOL      K  
 OXIDANT     O2                           0.9814677      2001.294    365.800
 OXIDANT     H2O                          0.0111194   -239541.240    365.800
 OXIDANT     CO2                          0.0074129   -390897.691    365.800
 FUEL        PMMA                         1.0000000   -442140.000    293.150

 O/F=    1.26207  %FUEL= 44.207345  R,EQ.RATIO= 1.430429  PHI,EQ.RATIO= 1.548188

                 INJECTOR  COMB END  THROAT
 Pinj/P            1.0000   1.0023   1.7378
 P, BAR            13.000   12.971   7.4809
 T, K             3199.60  3199.13  3024.31
 RHO, KG/CU M    1.1695 0 1.1671 0 7.2003-1
 H, KJ/KG        -2037.30 -2038.55 -2630.10
 U, KJ/KG        -3148.85 -3149.92 -3669.07
 G, KJ/KG        -38296.1 -38293.2 -36903.6
 S, KJ/(KG)(K)    11.3323  11.3327  11.3327

 M, (1/n)          23.933   23.934   24.202
 (dLV/dLP)t      -1.02235 -1.02234 -1.01607
 (dLV/dLT)p        1.4392   1.4391   1.3338
 Cp, KJ/(KG)(K)    5.0004   5.0002   4.3737
 GAMMAs            1.1384   1.1384   1.1411
 SON VEL,M/SEC     1124.9   1124.8   1088.9
 MACH NUMBER        0.000    0.044    1.000

 PERFORMANCE PARAMETERS

 Ae/At                      13.428   1.0000
 CSTAR, M/SEC               1656.3   1656.3
 CF                         0.0302   0.6574
 Ivac, M/SEC               22265.5   2043.0
 Isp, M/SEC                   50.0   1088.9


 MOLE FRACTIONS

 *CO              0.37438  0.37437  0.37048
 *CO2             0.15626  0.15628  0.16613
 *H               0.02400  0.02400  0.01924
 HCO              0.00001  0.00001  0.00000
 HO2              0.00001  0.00001  0.00001
 *H2              0.09478  0.09478  0.09546
 H2O              0.30804  0.30806  0.31895
 *O               0.00452  0.00452  0.00266
 *OH              0.03224  0.03223  0.02355
 *O2              0.00574  0.00574  0.00352

  * THERMODYNAMIC PROPERTIES FITTED TO 20000.K

    PRODUCTS WHICH WERE CONSIDERED BUT WHOSE MOLE FRACTIONS
    WERE LESS THAN 5.000000E-06 FOR ALL ASSIGNED CONDITIONS

 *C              *CH             CH2             CH3             CH2OH          
 CH3O            CH4             CH3OH           CH3OOH          COOH           
 *C2             C2H             C2H2,acetylene  C2H2,vinylidene CH2CO,ketene   
 O(CH)2O         HO(CO)2OH       C2H3,vinyl      CH3CO,acetyl    C2H4           
 C2H4O,ethylen-o CH3CHO,ethanal  CH3COOH         OHCH2COOH       C2H5           
 C2H6            C2H5OH          CH3OCH3         CH3O2CH3        C2O            
 *C3             C3H3,1-propynl  C3H3,2-propynl  C3H4,allene     C3H4,propyne   
 C3H4,cyclo-     C3H5,allyl      C3H6,propylene  C3H6,cyclo-     C3H6O,propylox 
 C3H6O,acetone   C3H6O,propanal  C3H7,n-propyl   C3H7,i-propyl   C3H8           
 C3H8O,1propanol C3H8O,2propanol C3O2            *C4             C4H2,butadiyne 
 C4H4,1,3-cyclo- C4H6,butadiene  C4H6,1butyne    C4H6,2butyne    C4H6,cyclo-    
 C4H8,1-butene   C4H8,cis2-buten C4H8,tr2-butene C4H8,isobutene  C4H8,cyclo-    
 (CH3COOH)2      C4H9,n-butyl    C4H9,i-butyl    C4H9,s-butyl    C4H9,t-butyl   
 C4H10,n-butane  C4H10,isobutane *C5             C5H6,1,3cyclo-  C5H8,cyclo-    
 C5H10,1-pentene C5H10,cyclo-    C5H11,pentyl    C5H11,t-pentyl  C5H12,n-pentane
 C5H12,i-pentane CH3C(CH3)2CH3   C6H2            C6H5,phenyl     C6H5O,phenoxy  
 C6H6            C6H5OH,phenol   C6H10,cyclo-    C6H12,1-hexene  C6H12,cyclo-   
 C6H13,n-hexyl   C6H14,n-hexane  C7H7,benzyl     C7H8            C7H8O,cresol-mx
 C7H14,1-heptene C7H15,n-heptyl  C7H16,n-heptane C7H16,2-methylh C8H8,styrene   
 C8H10,ethylbenz C8H16,1-octene  C8H17,n-octyl   C8H18,n-octane  C8H18,isooctane
 C9H19,n-nonyl   C10H8,naphthale C10H21,n-decyl  C12H9,o-bipheny C12H10,biphenyl
 HCCO            HCHO,formaldehy HCOOH           H2O2            (HCOOH)2       
 O3              C(gr)           H2O(cr)         H2O(L)         

 NOTE. WEIGHT FRACTION OF FUEL IN TOTAL FUELS AND OF OXIDANT IN TOTAL OXIDANTS






 WARNING!!  ASSIGNED pip =   0.00000 IS NOT PERMITTED
 TO BE LESS THAN  Pinj/Pc =  1.00225. POINT OMITTED (ROCKET)





              THEORETICAL ROCKET PERFORMANCE ASSUMING EQUILIBRIUM

            COMPOSITION DURING EXPANSION FROM FINITE AREA COMBUSTOR

 Pin =   188.5 PSIA
 Ac/At = 13.4268      Pinj/Pinf =  1.001124
 CASE =                

             REACTANT                    WT FRACTION      ENERGY      TEMP
                                          (SEE NOTE)     KJ/KG-MOL      K  
 OXIDANT     O2                           0.9814677      2001.294    365.800
 OXIDANT     H2O                          0.0111194   -239541.240    365.800
 OXIDANT     CO2                          0.0074129   -390897.691    365.800
 FUEL        PMMA                         1.0000000   -442140.000    293.150

 O/F=    1.26207  %FUEL= 44.207345  R,EQ.RATIO= 1.430429  PHI,EQ.RATIO= 1.548188

                 INJECTOR  COMB END  THROAT
 Pinj/P            1.0000   1.0023   1.7378
 P, BAR            13.000   12.971   7.4809
 T, K             3199.60  3199.13  3024.31
 RHO, KG/CU M    1.1695 0 1.1671 0 7.2003-1
 H, KJ/KG        -2037.30 -2038.55 -2630.10
 U, KJ/KG        -3148.85 -3149.92 -3669.07
 G, KJ/KG        -38296.1 -38293.2 -36903.6
 S, KJ/(KG)(K)    11.3323  11.3327  11.3327

 M, (1/n)          23.933   23.934   24.202
 (dLV/dLP)t      -1.02235 -1.02234 -1.01607
 (dLV/dLT)p        1.4392   1.4391   1.3338
 Cp, KJ/(KG)(K)    5.0004   5.0002   4.3737
 GAMMAs            1.1384   1.1384   1.1411
 SON VEL,M/SEC     1124.9   1124.8   1088.9
 MACH NUMBER        0.000    0.044    1.000

 PERFORMANCE PARAMETERS

 Ae/At                      13.428   1.0000
 CSTAR, M/SEC               1656.3   1656.3
 CF                         0.0302   0.6574
 Ivac, M/SEC               22265.5   2043.0
 Isp, M/SEC                   50.0   1088.9


 MOLE FRACTIONS

 *CO              0.37438  0.37437  0.37048
 *CO2             0.15626  0.15628  0.16613
 *H               0.02400  0.02400  0.01924
 HCO              0.00001  0.00001  0.00000
 HO2              0.00001  0.00001  0.00001
 *H2              0.09478  0.09478  0.09546
 H2O              0.30804  0.30806  0.31895
 *O               0.00452  0.00452  0.00266
 *OH              0.03224  0.03223  0.02355
 *O2              0.00574  0.00574  0.00352

  * THERMODYNAMIC PROPERTIES FITTED TO 20000.K

    PRODUCTS WHICH WERE CONSIDERED BUT WHOSE MOLE FRACTIONS
    WERE LESS THAN 5.000000E-06 FOR ALL ASSIGNED CONDITIONS

 *C              *CH             CH2             CH3             CH2OH          
 CH3O            CH4             CH3OH           CH3OOH          COOH           
 *C2             C2H             C2H2,acetylene  C2H2,vinylidene CH2CO,ketene   
 O(CH)2O         HO(CO)2OH       C2H3,vinyl      CH3CO,acetyl    C2H4           
 C2H4O,ethylen-o CH3CHO,ethanal  CH3COOH         OHCH2COOH       C2H5           
 C2H6            C2H5OH          CH3OCH3         CH3O2CH3        C2O            
 *C3             C3H3,1-propynl  C3H3,2-propynl  C3H4,allene     C3H4,propyne   
 C3H4,cyclo-     C3H5,allyl      C3H6,propylene  C3H6,cyclo-     C3H6O,propylox 
 C3H6O,acetone   C3H6O,propanal  C3H7,n-propyl   C3H7,i-propyl   C3H8           
 C3H8O,1propanol C3H8O,2propanol C3O2            *C4             C4H2,butadiyne 
 C4H4,1,3-cyclo- C4H6,butadiene  C4H6,1butyne    C4H6,2butyne    C4H6,cyclo-    
 C4H8,1-butene   C4H8,cis2-buten C4H8,tr2-butene C4H8,isobutene  C4H8,cyclo-    
 (CH3COOH)2      C4H9,n-butyl    C4H9,i-butyl    C4H9,s-butyl    C4H9,t-butyl   
 C4H10,n-butane  C4H10,isobutane *C5             C5H6,1,3cyclo-  C5H8,cyclo-    
 C5H10,1-pentene C5H10,cyclo-    C5H11,pentyl    C5H11,t-pentyl  C5H12,n-pentane
 C5H12,i-pentane CH3C(CH3)2CH3   C6H2            C6H5,phenyl     C6H5O,phenoxy  
 C6H6            C6H5OH,phenol   C6H10,cyclo-    C6H12,1-hexene  C6H12,cyclo-   
 C6H13,n-hexyl   C6H14,n-hexane  C7H7,benzyl     C7H8            C7H8O,cresol-mx
 C7H14,1-heptene C7H15,n-heptyl  C7H16,n-heptane C7H16,2-methylh C8H8,styrene   
 C8H10,ethylbenz C8H16,1-octene  C8H17,n-octyl   C8H18,n-octane  C8H18,isooctane
 C9H19,n-nonyl   C10H8,naphthale C10H21,n-decyl  C12H9,o-bipheny C12H10,biphenyl
 HCCO            HCHO,formaldehy HCOOH           H2O2            (HCOOH)2       
 O3              C(gr)           H2O(cr)         H2O(L)         

 NOTE. WEIGHT FRACTION OF FUEL IN TOTAL FUELS AND OF OXIDANT IN TOTAL OXIDANTS






 WARNING!!  ASSIGNED pip =   0.00000 IS NOT PERMITTED
 TO BE LESS THAN  Pinj/Pc =  1.00225. POINT OMITTED (ROCKET)





              THEORETICAL ROCKET PERFORMANCE ASSUMING EQUILIBRIUM

            COMPOSITION DURING EXPANSION FROM FINITE AREA COMBUSTOR

 Pin =   188.5 PSIA
 Ac/At = 13.4268      Pinj/Pinf =  1.001124
 CASE =                

             REACTANT                    WT FRACTION      ENERGY      TEMP
                                          (SEE NOTE)     KJ/KG-MOL      K  
 OXIDANT     O2                           0.9814677      2001.294    365.800
 OXIDANT     H2O                          0.0111194   -239541.240    365.800
 OXIDANT     CO2                          0.0074129   -390897.691    365.800
 FUEL        PMMA                         1.0000000   -442140.000    293.150

 O/F=    1.26207  %FUEL= 44.207345  R,EQ.RATIO= 1.430429  PHI,EQ.RATIO= 1.548188

                 INJECTOR  COMB END  THROAT
 Pinj/P            1.0000   1.0023   1.7378
 P, BAR            13.000   12.971   7.4809
 T, K             3199.60  3199.13  3024.31
 RHO, KG/CU M    1.1695 0 1.1671 0 7.2003-1
 H, KJ/KG        -2037.30 -2038.55 -2630.10
 U, KJ/KG        -3148.85 -3149.92 -3669.07
 G, KJ/KG        -38296.1 -38293.2 -36903.6
 S, KJ/(KG)(K)    11.3323  11.3327  11.3327

 M, (1/n)          23.933   23.934   24.202
 (dLV/dLP)t      -1.02235 -1.02234 -1.01607
 (dLV/dLT)p        1.4392   1.4391   1.3338
 Cp, KJ/(KG)(K)    5.0004   5.0002   4.3737
 GAMMAs            1.1384   1.1384   1.1411
 SON VEL,M/SEC     1124.9   1124.8   1088.9
 MACH NUMBER        0.000    0.044    1.000

 PERFORMANCE PARAMETERS

 Ae/At                      13.428   1.0000
 CSTAR, M/SEC               1656.3   1656.3
 CF                         0.0302   0.6574
 Ivac, M/SEC               22265.5   2043.0
 Isp, M/SEC                   50.0   1088.9


 MOLE FRACTIONS

 *CO              0.37438  0.37437  0.37048
 *CO2             0.15626  0.15628  0.16613
 *H               0.02400  0.02400  0.01924
 HCO              0.00001  0.00001  0.00000
 HO2              0.00001  0.00001  0.00001
 *H2              0.09478  0.09478  0.09546
 H2O              0.30804  0.30806  0.31895
 *O               0.00452  0.00452  0.00266
 *OH              0.03224  0.03223  0.02355
 *O2              0.00574  0.00574  0.00352

  * THERMODYNAMIC PROPERTIES FITTED TO 20000.K

    PRODUCTS WHICH WERE CONSIDERED BUT WHOSE MOLE FRACTIONS
    WERE LESS THAN 5.000000E-06 FOR ALL ASSIGNED CONDITIONS

 *C              *CH             CH2             CH3             CH2OH          
 CH3O            CH4             CH3OH           CH3OOH          COOH           
 *C2             C2H             C2H2,acetylene  C2H2,vinylidene CH2CO,ketene   
 O(CH)2O         HO(CO)2OH       C2H3,vinyl      CH3CO,acetyl    C2H4           
 C2H4O,ethylen-o CH3CHO,ethanal  CH3COOH         OHCH2COOH       C2H5           
 C2H6            C2H5OH          CH3OCH3         CH3O2CH3        C2O            
 *C3             C3H3,1-propynl  C3H3,2-propynl  C3H4,allene     C3H4,propyne   
 C3H4,cyclo-     C3H5,allyl      C3H6,propylene  C3H6,cyclo-     C3H6O,propylox 
 C3H6O,acetone   C3H6O,propanal  C3H7,n-propyl   C3H7,i-propyl   C3H8           
 C3H8O,1propanol C3H8O,2propanol C3O2            *C4             C4H2,butadiyne 
 C4H4,1,3-cyclo- C4H6,butadiene  C4H6,1butyne    C4H6,2butyne    C4H6,cyclo-    
 C4H8,1-butene   C4H8,cis2-buten C4H8,tr2-butene C4H8,isobutene  C4H8,cyclo-    
 (CH3COOH)2      C4H9,n-butyl    C4H9,i-butyl    C4H9,s-butyl    C4H9,t-butyl   
 C4H10,n-butane  C4H10,isobutane *C5             C5H6,1,3cyclo-  C5H8,cyclo-    
 C5H10,1-pentene C5H10,cyclo-    C5H11,pentyl    C5H11,t-pentyl  C5H12,n-pentane
 C5H12,i-pentane CH3C(CH3)2CH3   C6H2            C6H5,phenyl     C6H5O,phenoxy  
 C6H6            C6H5OH,phenol   C6H10,cyclo-    C6H12,1-hexene  C6H12,cyclo-   
 C6H13,n-hexyl   C6H14,n-hexane  C7H7,benzyl     C7H8            C7H8O,cresol-mx
 C7H14,1-heptene C7H15,n-heptyl  C7H16,n-heptane C7H16,2-methylh C8H8,styrene   
 C8H10,ethylbenz C8H16,1-octene  C8H17,n-octyl   C8H18,n-octane  C8H18,isooctane
 C9H19,n-nonyl   C10H8,naphthale C10H21,n-decyl  C12H9,o-bipheny C12H10,biphenyl
 HCCO            HCHO,formaldehy HCOOH           H2O2            (HCOOH)2       
 O3              C(gr)           H2O(cr)         H2O(L)         

 NOTE. WEIGHT FRACTION OF FUEL IN TOTAL FUELS AND OF OXIDANT IN TOTAL OXIDANTS






 WARNING!!  ASSIGNED pip =   0.00000 IS NOT PERMITTED
 TO BE LESS THAN  Pinj/Pc =  1.00225. POINT OMITTED (ROCKET)





              THEORETICAL ROCKET PERFORMANCE ASSUMING EQUILIBRIUM

            COMPOSITION DURING EXPANSION FROM FINITE AREA COMBUSTOR

 Pin =   188.5 PSIA
 Ac/At = 13.4268      Pinj/Pinf =  1.001124
 CASE =                

             REACTANT                    WT FRACTION      ENERGY      TEMP
                                          (SEE NOTE)     KJ/KG-MOL      K  
 OXIDANT     O2                           0.9814677      2001.294    365.800
 OXIDANT     H2O                          0.0111194   -239541.240    365.800
 OXIDANT     CO2                          0.0074129   -390897.691    365.800
 FUEL        PMMA                         1.0000000   -442140.000    293.150

 O/F=    1.26207  %FUEL= 44.207345  R,EQ.RATIO= 1.430429  PHI,EQ.RATIO= 1.548188

                 INJECTOR  COMB END  THROAT
 Pinj/P            1.0000   1.0023   1.7378
 P, BAR            13.000   12.971   7.4809
 T, K             3199.60  3199.13  3024.31
 RHO, KG/CU M    1.1695 0 1.1671 0 7.2003-1
 H, KJ/KG        -2037.30 -2038.55 -2630.10
 U, KJ/KG        -3148.85 -3149.92 -3669.07
 G, KJ/KG        -38296.1 -38293.2 -36903.6
 S, KJ/(KG)(K)    11.3323  11.3327  11.3327

 M, (1/n)          23.933   23.934   24.202
 (dLV/dLP)t      -1.02235 -1.02234 -1.01607
 (dLV/dLT)p        1.4392   1.4391   1.3338
 Cp, KJ/(KG)(K)    5.0004   5.0002   4.3737
 GAMMAs            1.1384   1.1384   1.1411
 SON VEL,M/SEC     1124.9   1124.8   1088.9
 MACH NUMBER        0.000    0.044    1.000

 PERFORMANCE PARAMETERS

 Ae/At                      13.428   1.0000
 CSTAR, M/SEC               1656.3   1656.3
 CF                         0.0302   0.6574
 Ivac, M/SEC               22265.5   2043.0
 Isp, M/SEC                   50.0   1088.9


 MOLE FRACTIONS

 *CO              0.37438  0.37437  0.37048
 *CO2             0.15626  0.15628  0.16613
 *H               0.02400  0.02400  0.01924
 HCO              0.00001  0.00001  0.00000
 HO2              0.00001  0.00001  0.00001
 *H2              0.09478  0.09478  0.09546
 H2O              0.30804  0.30806  0.31895
 *O               0.00452  0.00452  0.00266
 *OH              0.03224  0.03223  0.02355
 *O2              0.00574  0.00574  0.00352

  * THERMODYNAMIC PROPERTIES FITTED TO 20000.K

    PRODUCTS WHICH WERE CONSIDERED BUT WHOSE MOLE FRACTIONS
    WERE LESS THAN 5.000000E-06 FOR ALL ASSIGNED CONDITIONS

 *C              *CH             CH2             CH3             CH2OH          
 CH3O            CH4             CH3OH           CH3OOH          COOH           
 *C2             C2H             C2H2,acetylene  C2H2,vinylidene CH2CO,ketene   
 O(CH)2O         HO(CO)2OH       C2H3,vinyl      CH3CO,acetyl    C2H4           
 C2H4O,ethylen-o CH3CHO,ethanal  CH3COOH         OHCH2COOH       C2H5           
 C2H6            C2H5OH          CH3OCH3         CH3O2CH3        C2O            
 *C3             C3H3,1-propynl  C3H3,2-propynl  C3H4,allene     C3H4,propyne   
 C3H4,cyclo-     C3H5,allyl      C3H6,propylene  C3H6,cyclo-     C3H6O,propylox 
 C3H6O,acetone   C3H6O,propanal  C3H7,n-propyl   C3H7,i-propyl   C3H8           
 C3H8O,1propanol C3H8O,2propanol C3O2            *C4             C4H2,butadiyne 
 C4H4,1,3-cyclo- C4H6,butadiene  C4H6,1butyne    C4H6,2butyne    C4H6,cyclo-    
 C4H8,1-butene   C4H8,cis2-buten C4H8,tr2-butene C4H8,isobutene  C4H8,cyclo-    
 (CH3COOH)2      C4H9,n-butyl    C4H9,i-butyl    C4H9,s-butyl    C4H9,t-butyl   
 C4H10,n-butane  C4H10,isobutane *C5             C5H6,1,3cyclo-  C5H8,cyclo-    
 C5H10,1-pentene C5H10,cyclo-    C5H11,pentyl    C5H11,t-pentyl  C5H12,n-pentane
 C5H12,i-pentane CH3C(CH3)2CH3   C6H2            C6H5,phenyl     C6H5O,phenoxy  
 C6H6            C6H5OH,phenol   C6H10,cyclo-    C6H12,1-hexene  C6H12,cyclo-   
 C6H13,n-hexyl   C6H14,n-hexane  C7H7,benzyl     C7H8            C7H8O,cresol-mx
 C7H14,1-heptene C7H15,n-heptyl  C7H16,n-heptane C7H16,2-methylh C8H8,styrene   
 C8H10,ethylbenz C8H16,1-octene  C8H17,n-octyl   C8H18,n-octane  C8H18,isooctane
 C9H19,n-nonyl   C10H8,naphthale C10H21,n-decyl  C12H9,o-bipheny C12H10,biphenyl
 HCCO            HCHO,formaldehy HCOOH           H2O2            (HCOOH)2       
 O3              C(gr)           H2O(cr)         H2O(L)         

 NOTE. WEIGHT FRACTION OF FUEL IN TOTAL FUELS AND OF OXIDANT IN TOTAL OXIDANTS






 WARNING!!  ASSIGNED pip =   0.00000 IS NOT PERMITTED
 TO BE LESS THAN  Pinj/Pc =  1.00225. POINT OMITTED (ROCKET)





              THEORETICAL ROCKET PERFORMANCE ASSUMING EQUILIBRIUM

            COMPOSITION DURING EXPANSION FROM FINITE AREA COMBUSTOR

 Pin =   188.5 PSIA
 Ac/At = 13.4268      Pinj/Pinf =  1.001124
 CASE =                

             REACTANT                    WT FRACTION      ENERGY      TEMP
                                          (SEE NOTE)     KJ/KG-MOL      K  
 OXIDANT     O2                           0.9814677      2001.294    365.800
 OXIDANT     H2O                          0.0111194   -239541.240    365.800
 OXIDANT     CO2                          0.0074129   -390897.691    365.800
 FUEL        PMMA                         1.0000000   -442140.000    293.150

 O/F=    1.26207  %FUEL= 44.207345  R,EQ.RATIO= 1.430429  PHI,EQ.RATIO= 1.548188

                 INJECTOR  COMB END  THROAT
 Pinj/P            1.0000   1.0023   1.7378
 P, BAR            13.000   12.971   7.4809
 T, K             3199.60  3199.13  3024.31
 RHO, KG/CU M    1.1695 0 1.1671 0 7.2003-1
 H, KJ/KG        -2037.30 -2038.55 -2630.10
 U, KJ/KG        -3148.85 -3149.92 -3669.07
 G, KJ/KG        -38296.1 -38293.2 -36903.6
 S, KJ/(KG)(K)    11.3323  11.3327  11.3327

 M, (1/n)          23.933   23.934   24.202
 (dLV/dLP)t      -1.02235 -1.02234 -1.01607
 (dLV/dLT)p        1.4392   1.4391   1.3338
 Cp, KJ/(KG)(K)    5.0004   5.0002   4.3737
 GAMMAs            1.1384   1.1384   1.1411
 SON VEL,M/SEC     1124.9   1124.8   1088.9
 MACH NUMBER        0.000    0.044    1.000

 PERFORMANCE PARAMETERS

 Ae/At                      13.428   1.0000
 CSTAR, M/SEC               1656.3   1656.3
 CF                         0.0302   0.6574
 Ivac, M/SEC               22265.5   2043.0
 Isp, M/SEC                   50.0   1088.9


 MOLE FRACTIONS

 *CO              0.37438  0.37437  0.37048
 *CO2             0.15626  0.15628  0.16613
 *H               0.02400  0.02400  0.01924
 HCO              0.00001  0.00001  0.00000
 HO2              0.00001  0.00001  0.00001
 *H2              0.09478  0.09478  0.09546
 H2O              0.30804  0.30806  0.31895
 *O               0.00452  0.00452  0.00266
 *OH              0.03224  0.03223  0.02355
 *O2              0.00574  0.00574  0.00352

  * THERMODYNAMIC PROPERTIES FITTED TO 20000.K

    PRODUCTS WHICH WERE CONSIDERED BUT WHOSE MOLE FRACTIONS
    WERE LESS THAN 5.000000E-06 FOR ALL ASSIGNED CONDITIONS

 *C              *CH             CH2             CH3             CH2OH          
 CH3O            CH4             CH3OH           CH3OOH          COOH           
 *C2             C2H             C2H2,acetylene  C2H2,vinylidene CH2CO,ketene   
 O(CH)2O         HO(CO)2OH       C2H3,vinyl      CH3CO,acetyl    C2H4           
 C2H4O,ethylen-o CH3CHO,ethanal  CH3COOH         OHCH2COOH       C2H5           
 C2H6            C2H5OH          CH3OCH3         CH3O2CH3        C2O            
 *C3             C3H3,1-propynl  C3H3,2-propynl  C3H4,allene     C3H4,propyne   
 C3H4,cyclo-     C3H5,allyl      C3H6,propylene  C3H6,cyclo-     C3H6O,propylox 
 C3H6O,acetone   C3H6O,propanal  C3H7,n-propyl   C3H7,i-propyl   C3H8           
 C3H8O,1propanol C3H8O,2propanol C3O2            *C4             C4H2,butadiyne 
 C4H4,1,3-cyclo- C4H6,butadiene  C4H6,1butyne    C4H6,2butyne    C4H6,cyclo-    
 C4H8,1-butene   C4H8,cis2-buten C4H8,tr2-butene C4H8,isobutene  C4H8,cyclo-    
 (CH3COOH)2      C4H9,n-butyl    C4H9,i-butyl    C4H9,s-butyl    C4H9,t-butyl   
 C4H10,n-butane  C4H10,isobutane *C5             C5H6,1,3cyclo-  C5H8,cyclo-    
 C5H10,1-pentene C5H10,cyclo-    C5H11,pentyl    C5H11,t-pentyl  C5H12,n-pentane
 C5H12,i-pentane CH3C(CH3)2CH3   C6H2            C6H5,phenyl     C6H5O,phenoxy  
 C6H6            C6H5OH,phenol   C6H10,cyclo-    C6H12,1-hexene  C6H12,cyclo-   
 C6H13,n-hexyl   C6H14,n-hexane  C7H7,benzyl     C7H8            C7H8O,cresol-mx
 C7H14,1-heptene C7H15,n-heptyl  C7H16,n-heptane C7H16,2-methylh C8H8,styrene   
 C8H10,ethylbenz C8H16,1-octene  C8H17,n-octyl   C8H18,n-octane  C8H18,isooctane
 C9H19,n-nonyl   C10H8,naphthale C10H21,n-decyl  C12H9,o-bipheny C12H10,biphenyl
 HCCO            HCHO,formaldehy HCOOH           H2O2            (HCOOH)2       
 O3              C(gr)           H2O(cr)         H2O(L)         

 NOTE. WEIGHT FRACTION OF FUEL IN TOTAL FUELS AND OF OXIDANT IN TOTAL OXIDANTS






 WARNING!!  ASSIGNED pip =   0.00000 IS NOT PERMITTED
 TO BE LESS THAN  Pinj/Pc =  1.00225. POINT OMITTED (ROCKET)





              THEORETICAL ROCKET PERFORMANCE ASSUMING EQUILIBRIUM

            COMPOSITION DURING EXPANSION FROM FINITE AREA COMBUSTOR

 Pin =   188.5 PSIA
 Ac/At = 13.4268      Pinj/Pinf =  1.001124
 CASE =                

             REACTANT                    WT FRACTION      ENERGY      TEMP
                                          (SEE NOTE)     KJ/KG-MOL      K  
 OXIDANT     O2                           0.9814677      2001.294    365.800
 OXIDANT     H2O                          0.0111194   -239541.240    365.800
 OXIDANT     CO2                          0.0074129   -390897.691    365.800
 FUEL        PMMA                         1.0000000   -442140.000    293.150

 O/F=    1.26207  %FUEL= 44.207345  R,EQ.RATIO= 1.430429  PHI,EQ.RATIO= 1.548188

                 INJECTOR  COMB END  THROAT
 Pinj/P            1.0000   1.0023   1.7378
 P, BAR            13.000   12.971   7.4809
 T, K             3199.60  3199.13  3024.31
 RHO, KG/CU M    1.1695 0 1.1671 0 7.2003-1
 H, KJ/KG        -2037.30 -2038.55 -2630.10
 U, KJ/KG        -3148.85 -3149.92 -3669.07
 G, KJ/KG        -38296.1 -38293.2 -36903.6
 S, KJ/(KG)(K)    11.3323  11.3327  11.3327

 M, (1/n)          23.933   23.934   24.202
 (dLV/dLP)t      -1.02235 -1.02234 -1.01607
 (dLV/dLT)p        1.4392   1.4391   1.3338
 Cp, KJ/(KG)(K)    5.0004   5.0002   4.3737
 GAMMAs            1.1384   1.1384   1.1411
 SON VEL,M/SEC     1124.9   1124.8   1088.9
 MACH NUMBER        0.000    0.044    1.000

 PERFORMANCE PARAMETERS

 Ae/At                      13.428   1.0000
 CSTAR, M/SEC               1656.3   1656.3
 CF                         0.0302   0.6574
 Ivac, M/SEC               22265.5   2043.0
 Isp, M/SEC                   50.0   1088.9


 MOLE FRACTIONS

 *CO              0.37438  0.37437  0.37048
 *CO2             0.15626  0.15628  0.16613
 *H               0.02400  0.02400  0.01924
 HCO              0.00001  0.00001  0.00000
 HO2              0.00001  0.00001  0.00001
 *H2              0.09478  0.09478  0.09546
 H2O              0.30804  0.30806  0.31895
 *O               0.00452  0.00452  0.00266
 *OH              0.03224  0.03223  0.02355
 *O2              0.00574  0.00574  0.00352

  * THERMODYNAMIC PROPERTIES FITTED TO 20000.K

    PRODUCTS WHICH WERE CONSIDERED BUT WHOSE MOLE FRACTIONS
    WERE LESS THAN 5.000000E-06 FOR ALL ASSIGNED CONDITIONS

 *C              *CH             CH2             CH3             CH2OH          
 CH3O            CH4             CH3OH           CH3OOH          COOH           
 *C2             C2H             C2H2,acetylene  C2H2,vinylidene CH2CO,ketene   
 O(CH)2O         HO(CO)2OH       C2H3,vinyl      CH3CO,acetyl    C2H4           
 C2H4O,ethylen-o CH3CHO,ethanal  CH3COOH         OHCH2COOH       C2H5           
 C2H6            C2H5OH          CH3OCH3         CH3O2CH3        C2O            
 *C3             C3H3,1-propynl  C3H3,2-propynl  C3H4,allene     C3H4,propyne   
 C3H4,cyclo-     C3H5,allyl      C3H6,propylene  C3H6,cyclo-     C3H6O,propylox 
 C3H6O,acetone   C3H6O,propanal  C3H7,n-propyl   C3H7,i-propyl   C3H8           
 C3H8O,1propanol C3H8O,2propanol C3O2            *C4             C4H2,butadiyne 
 C4H4,1,3-cyclo- C4H6,butadiene  C4H6,1butyne    C4H6,2butyne    C4H6,cyclo-    
 C4H8,1-butene   C4H8,cis2-buten C4H8,tr2-butene C4H8,isobutene  C4H8,cyclo-    
 (CH3COOH)2      C4H9,n-butyl    C4H9,i-butyl    C4H9,s-butyl    C4H9,t-butyl   
 C4H10,n-butane  C4H10,isobutane *C5             C5H6,1,3cyclo-  C5H8,cyclo-    
 C5H10,1-pentene C5H10,cyclo-    C5H11,pentyl    C5H11,t-pentyl  C5H12,n-pentane
 C5H12,i-pentane CH3C(CH3)2CH3   C6H2            C6H5,phenyl     C6H5O,phenoxy  
 C6H6            C6H5OH,phenol   C6H10,cyclo-    C6H12,1-hexene  C6H12,cyclo-   
 C6H13,n-hexyl   C6H14,n-hexane  C7H7,benzyl     C7H8            C7H8O,cresol-mx
 C7H14,1-heptene C7H15,n-heptyl  C7H16,n-heptane C7H16,2-methylh C8H8,styrene   
 C8H10,ethylbenz C8H16,1-octene  C8H17,n-octyl   C8H18,n-octane  C8H18,isooctane
 C9H19,n-nonyl   C10H8,naphthale C10H21,n-decyl  C12H9,o-bipheny C12H10,biphenyl
 HCCO            HCHO,formaldehy HCOOH           H2O2            (HCOOH)2       
 O3              C(gr)           H2O(cr)         H2O(L)         

 NOTE. WEIGHT FRACTION OF FUEL IN TOTAL FUELS AND OF OXIDANT IN TOTAL OXIDANTS






 WARNING!!  ASSIGNED pip =   0.00000 IS NOT PERMITTED
 TO BE LESS THAN  Pinj/Pc =  1.00225. POINT OMITTED (ROCKET)





              THEORETICAL ROCKET PERFORMANCE ASSUMING EQUILIBRIUM

            COMPOSITION DURING EXPANSION FROM FINITE AREA COMBUSTOR

 Pin =   188.5 PSIA
 Ac/At = 13.4268      Pinj/Pinf =  1.001124
 CASE =                

             REACTANT                    WT FRACTION      ENERGY      TEMP
                                          (SEE NOTE)     KJ/KG-MOL      K  
 OXIDANT     O2                           0.9814677      2001.294    365.800
 OXIDANT     H2O                          0.0111194   -239541.240    365.800
 OXIDANT     CO2                          0.0074129   -390897.691    365.800
 FUEL        PMMA                         1.0000000   -442140.000    293.150

 O/F=    1.26207  %FUEL= 44.207345  R,EQ.RATIO= 1.430429  PHI,EQ.RATIO= 1.548188

                 INJECTOR  COMB END  THROAT
 Pinj/P            1.0000   1.0023   1.7378
 P, BAR            13.000   12.971   7.4809
 T, K             3199.60  3199.13  3024.31
 RHO, KG/CU M    1.1695 0 1.1671 0 7.2003-1
 H, KJ/KG        -2037.30 -2038.55 -2630.10
 U, KJ/KG        -3148.85 -3149.92 -3669.07
 G, KJ/KG        -38296.1 -38293.2 -36903.6
 S, KJ/(KG)(K)    11.3323  11.3327  11.3327

 M, (1/n)          23.933   23.934   24.202
 (dLV/dLP)t      -1.02235 -1.02234 -1.01607
 (dLV/dLT)p        1.4392   1.4391   1.3338
 Cp, KJ/(KG)(K)    5.0004   5.0002   4.3737
 GAMMAs            1.1384   1.1384   1.1411
 SON VEL,M/SEC     1124.9   1124.8   1088.9
 MACH NUMBER        0.000    0.044    1.000

 PERFORMANCE PARAMETERS

 Ae/At                      13.428   1.0000
 CSTAR, M/SEC               1656.3   1656.3
 CF                         0.0302   0.6574
 Ivac, M/SEC               22265.5   2043.0
 Isp, M/SEC                   50.0   1088.9


 MOLE FRACTIONS

 *CO              0.37438  0.37437  0.37048
 *CO2             0.15626  0.15628  0.16613
 *H               0.02400  0.02400  0.01924
 HCO              0.00001  0.00001  0.00000
 HO2              0.00001  0.00001  0.00001
 *H2              0.09478  0.09478  0.09546
 H2O              0.30804  0.30806  0.31895
 *O               0.00452  0.00452  0.00266
 *OH              0.03224  0.03223  0.02355
 *O2              0.00574  0.00574  0.00352

  * THERMODYNAMIC PROPERTIES FITTED TO 20000.K

    PRODUCTS WHICH WERE CONSIDERED BUT WHOSE MOLE FRACTIONS
    WERE LESS THAN 5.000000E-06 FOR ALL ASSIGNED CONDITIONS

 *C              *CH             CH2             CH3             CH2OH          
 CH3O            CH4             CH3OH           CH3OOH          COOH           
 *C2             C2H             C2H2,acetylene  C2H2,vinylidene CH2CO,ketene   
 O(CH)2O         HO(CO)2OH       C2H3,vinyl      CH3CO,acetyl    C2H4           
 C2H4O,ethylen-o CH3CHO,ethanal  CH3COOH         OHCH2COOH       C2H5           
 C2H6            C2H5OH          CH3OCH3         CH3O2CH3        C2O            
 *C3             C3H3,1-propynl  C3H3,2-propynl  C3H4,allene     C3H4,propyne   
 C3H4,cyclo-     C3H5,allyl      C3H6,propylene  C3H6,cyclo-     C3H6O,propylox 
 C3H6O,acetone   C3H6O,propanal  C3H7,n-propyl   C3H7,i-propyl   C3H8           
 C3H8O,1propanol C3H8O,2propanol C3O2            *C4             C4H2,butadiyne 
 C4H4,1,3-cyclo- C4H6,butadiene  C4H6,1butyne    C4H6,2butyne    C4H6,cyclo-    
 C4H8,1-butene   C4H8,cis2-buten C4H8,tr2-butene C4H8,isobutene  C4H8,cyclo-    
 (CH3COOH)2      C4H9,n-butyl    C4H9,i-butyl    C4H9,s-butyl    C4H9,t-butyl   
 C4H10,n-butane  C4H10,isobutane *C5             C5H6,1,3cyclo-  C5H8,cyclo-    
 C5H10,1-pentene C5H10,cyclo-    C5H11,pentyl    C5H11,t-pentyl  C5H12,n-pentane
 C5H12,i-pentane CH3C(CH3)2CH3   C6H2            C6H5,phenyl     C6H5O,phenoxy  
 C6H6            C6H5OH,phenol   C6H10,cyclo-    C6H12,1-hexene  C6H12,cyclo-   
 C6H13,n-hexyl   C6H14,n-hexane  C7H7,benzyl     C7H8            C7H8O,cresol-mx
 C7H14,1-heptene C7H15,n-heptyl  C7H16,n-heptane C7H16,2-methylh C8H8,styrene   
 C8H10,ethylbenz C8H16,1-octene  C8H17,n-octyl   C8H18,n-octane  C8H18,isooctane
 C9H19,n-nonyl   C10H8,naphthale C10H21,n-decyl  C12H9,o-bipheny C12H10,biphenyl
 HCCO            HCHO,formaldehy HCOOH           H2O2            (HCOOH)2       
 O3              C(gr)           H2O(cr)         H2O(L)         

 NOTE. WEIGHT FRACTION OF FUEL IN TOTAL FUELS AND OF OXIDANT IN TOTAL OXIDANTS






 WARNING!!  ASSIGNED pip =   0.00000 IS NOT PERMITTED
 TO BE LESS THAN  Pinj/Pc =  1.00225. POINT OMITTED (ROCKET)





              THEORETICAL ROCKET PERFORMANCE ASSUMING EQUILIBRIUM

            COMPOSITION DURING EXPANSION FROM FINITE AREA COMBUSTOR

 Pin =   188.5 PSIA
 Ac/At = 13.4268      Pinj/Pinf =  1.001124
 CASE =                

             REACTANT                    WT FRACTION      ENERGY      TEMP
                                          (SEE NOTE)     KJ/KG-MOL      K  
 OXIDANT     O2                           0.9814677      2001.294    365.800
 OXIDANT     H2O                          0.0111194   -239541.240    365.800
 OXIDANT     CO2                          0.0074129   -390897.691    365.800
 FUEL        PMMA                         1.0000000   -442140.000    293.150

 O/F=    1.26207  %FUEL= 44.207345  R,EQ.RATIO= 1.430429  PHI,EQ.RATIO= 1.548188

                 INJECTOR  COMB END  THROAT
 Pinj/P            1.0000   1.0023   1.7378
 P, BAR            13.000   12.971   7.4809
 T, K             3199.60  3199.13  3024.31
 RHO, KG/CU M    1.1695 0 1.1671 0 7.2003-1
 H, KJ/KG        -2037.30 -2038.55 -2630.10
 U, KJ/KG        -3148.85 -3149.92 -3669.07
 G, KJ/KG        -38296.1 -38293.2 -36903.6
 S, KJ/(KG)(K)    11.3323  11.3327  11.3327

 M, (1/n)          23.933   23.934   24.202
 (dLV/dLP)t      -1.02235 -1.02234 -1.01607
 (dLV/dLT)p        1.4392   1.4391   1.3338
 Cp, KJ/(KG)(K)    5.0004   5.0002   4.3737
 GAMMAs            1.1384   1.1384   1.1411
 SON VEL,M/SEC     1124.9   1124.8   1088.9
 MACH NUMBER        0.000    0.044    1.000

 PERFORMANCE PARAMETERS

 Ae/At                      13.428   1.0000
 CSTAR, M/SEC               1656.3   1656.3
 CF                         0.0302   0.6574
 Ivac, M/SEC               22265.5   2043.0
 Isp, M/SEC                   50.0   1088.9


 MOLE FRACTIONS

 *CO              0.37438  0.37437  0.37048
 *CO2             0.15626  0.15628  0.16613
 *H               0.02400  0.02400  0.01924
 HCO              0.00001  0.00001  0.00000
 HO2              0.00001  0.00001  0.00001
 *H2              0.09478  0.09478  0.09546
 H2O              0.30804  0.30806  0.31895
 *O               0.00452  0.00452  0.00266
 *OH              0.03224  0.03223  0.02355
 *O2              0.00574  0.00574  0.00352

  * THERMODYNAMIC PROPERTIES FITTED TO 20000.K

    PRODUCTS WHICH WERE CONSIDERED BUT WHOSE MOLE FRACTIONS
    WERE LESS THAN 5.000000E-06 FOR ALL ASSIGNED CONDITIONS

 *C              *CH             CH2             CH3             CH2OH          
 CH3O            CH4             CH3OH           CH3OOH          COOH           
 *C2             C2H             C2H2,acetylene  C2H2,vinylidene CH2CO,ketene   
 O(CH)2O         HO(CO)2OH       C2H3,vinyl      CH3CO,acetyl    C2H4           
 C2H4O,ethylen-o CH3CHO,ethanal  CH3COOH         OHCH2COOH       C2H5           
 C2H6            C2H5OH          CH3OCH3         CH3O2CH3        C2O            
 *C3             C3H3,1-propynl  C3H3,2-propynl  C3H4,allene     C3H4,propyne   
 C3H4,cyclo-     C3H5,allyl      C3H6,propylene  C3H6,cyclo-     C3H6O,propylox 
 C3H6O,acetone   C3H6O,propanal  C3H7,n-propyl   C3H7,i-propyl   C3H8           
 C3H8O,1propanol C3H8O,2propanol C3O2            *C4             C4H2,butadiyne 
 C4H4,1,3-cyclo- C4H6,butadiene  C4H6,1butyne    C4H6,2butyne    C4H6,cyclo-    
 C4H8,1-butene   C4H8,cis2-buten C4H8,tr2-butene C4H8,isobutene  C4H8,cyclo-    
 (CH3COOH)2      C4H9,n-butyl    C4H9,i-butyl    C4H9,s-butyl    C4H9,t-butyl   
 C4H10,n-butane  C4H10,isobutane *C5             C5H6,1,3cyclo-  C5H8,cyclo-    
 C5H10,1-pentene C5H10,cyclo-    C5H11,pentyl    C5H11,t-pentyl  C5H12,n-pentane
 C5H12,i-pentane CH3C(CH3)2CH3   C6H2            C6H5,phenyl     C6H5O,phenoxy  
 C6H6            C6H5OH,phenol   C6H10,cyclo-    C6H12,1-hexene  C6H12,cyclo-   
 C6H13,n-hexyl   C6H14,n-hexane  C7H7,benzyl     C7H8            C7H8O,cresol-mx
 C7H14,1-heptene C7H15,n-heptyl  C7H16,n-heptane C7H16,2-methylh C8H8,styrene   
 C8H10,ethylbenz C8H16,1-octene  C8H17,n-octyl   C8H18,n-octane  C8H18,isooctane
 C9H19,n-nonyl   C10H8,naphthale C10H21,n-decyl  C12H9,o-bipheny C12H10,biphenyl
 HCCO            HCHO,formaldehy HCOOH           H2O2            (HCOOH)2       
 O3              C(gr)           H2O(cr)         H2O(L)         

 NOTE. WEIGHT FRACTION OF FUEL IN TOTAL FUELS AND OF OXIDANT IN TOTAL OXIDANTS






 WARNING!!  ASSIGNED pip =   0.00000 IS NOT PERMITTED
 TO BE LESS THAN  Pinj/Pc =  1.00225. POINT OMITTED (ROCKET)





              THEORETICAL ROCKET PERFORMANCE ASSUMING EQUILIBRIUM

            COMPOSITION DURING EXPANSION FROM FINITE AREA COMBUSTOR

 Pin =   188.5 PSIA
 Ac/At = 13.4268      Pinj/Pinf =  1.001124
 CASE =                

             REACTANT                    WT FRACTION      ENERGY      TEMP
                                          (SEE NOTE)     KJ/KG-MOL      K  
 OXIDANT     O2                           0.9814677      2001.294    365.800
 OXIDANT     H2O                          0.0111194   -239541.240    365.800
 OXIDANT     CO2                          0.0074129   -390897.691    365.800
 FUEL        PMMA                         1.0000000   -442140.000    293.150

 O/F=    1.26207  %FUEL= 44.207345  R,EQ.RATIO= 1.430429  PHI,EQ.RATIO= 1.548188

                 INJECTOR  COMB END  THROAT
 Pinj/P            1.0000   1.0023   1.7378
 P, BAR            13.000   12.971   7.4809
 T, K             3199.60  3199.13  3024.31
 RHO, KG/CU M    1.1695 0 1.1671 0 7.2003-1
 H, KJ/KG        -2037.30 -2038.55 -2630.10
 U, KJ/KG        -3148.85 -3149.92 -3669.07
 G, KJ/KG        -38296.1 -38293.2 -36903.6
 S, KJ/(KG)(K)    11.3323  11.3327  11.3327

 M, (1/n)          23.933   23.934   24.202
 (dLV/dLP)t      -1.02235 -1.02234 -1.01607
 (dLV/dLT)p        1.4392   1.4391   1.3338
 Cp, KJ/(KG)(K)    5.0004   5.0002   4.3737
 GAMMAs            1.1384   1.1384   1.1411
 SON VEL,M/SEC     1124.9   1124.8   1088.9
 MACH NUMBER        0.000    0.044    1.000

 PERFORMANCE PARAMETERS

 Ae/At                      13.428   1.0000
 CSTAR, M/SEC               1656.3   1656.3
 CF                         0.0302   0.6574
 Ivac, M/SEC               22265.5   2043.0
 Isp, M/SEC                   50.0   1088.9


 MOLE FRACTIONS

 *CO              0.37438  0.37437  0.37048
 *CO2             0.15626  0.15628  0.16613
 *H               0.02400  0.02400  0.01924
 HCO              0.00001  0.00001  0.00000
 HO2              0.00001  0.00001  0.00001
 *H2              0.09478  0.09478  0.09546
 H2O              0.30804  0.30806  0.31895
 *O               0.00452  0.00452  0.00266
 *OH              0.03224  0.03223  0.02355
 *O2              0.00574  0.00574  0.00352

  * THERMODYNAMIC PROPERTIES FITTED TO 20000.K

    PRODUCTS WHICH WERE CONSIDERED BUT WHOSE MOLE FRACTIONS
    WERE LESS THAN 5.000000E-06 FOR ALL ASSIGNED CONDITIONS

 *C              *CH             CH2             CH3             CH2OH          
 CH3O            CH4             CH3OH           CH3OOH          COOH           
 *C2             C2H             C2H2,acetylene  C2H2,vinylidene CH2CO,ketene   
 O(CH)2O         HO(CO)2OH       C2H3,vinyl      CH3CO,acetyl    C2H4           
 C2H4O,ethylen-o CH3CHO,ethanal  CH3COOH         OHCH2COOH       C2H5           
 C2H6            C2H5OH          CH3OCH3         CH3O2CH3        C2O            
 *C3             C3H3,1-propynl  C3H3,2-propynl  C3H4,allene     C3H4,propyne   
 C3H4,cyclo-     C3H5,allyl      C3H6,propylene  C3H6,cyclo-     C3H6O,propylox 
 C3H6O,acetone   C3H6O,propanal  C3H7,n-propyl   C3H7,i-propyl   C3H8           
 C3H8O,1propanol C3H8O,2propanol C3O2            *C4             C4H2,butadiyne 
 C4H4,1,3-cyclo- C4H6,butadiene  C4H6,1butyne    C4H6,2butyne    C4H6,cyclo-    
 C4H8,1-butene   C4H8,cis2-buten C4H8,tr2-butene C4H8,isobutene  C4H8,cyclo-    
 (CH3COOH)2      C4H9,n-butyl    C4H9,i-butyl    C4H9,s-butyl    C4H9,t-butyl   
 C4H10,n-butane  C4H10,isobutane *C5             C5H6,1,3cyclo-  C5H8,cyclo-    
 C5H10,1-pentene C5H10,cyclo-    C5H11,pentyl    C5H11,t-pentyl  C5H12,n-pentane
 C5H12,i-pentane CH3C(CH3)2CH3   C6H2            C6H5,phenyl     C6H5O,phenoxy  
 C6H6            C6H5OH,phenol   C6H10,cyclo-    C6H12,1-hexene  C6H12,cyclo-   
 C6H13,n-hexyl   C6H14,n-hexane  C7H7,benzyl     C7H8            C7H8O,cresol-mx
 C7H14,1-heptene C7H15,n-heptyl  C7H16,n-heptane C7H16,2-methylh C8H8,styrene   
 C8H10,ethylbenz C8H16,1-octene  C8H17,n-octyl   C8H18,n-octane  C8H18,isooctane
 C9H19,n-nonyl   C10H8,naphthale C10H21,n-decyl  C12H9,o-bipheny C12H10,biphenyl
 HCCO            HCHO,formaldehy HCOOH           H2O2            (HCOOH)2       
 O3              C(gr)           H2O(cr)         H2O(L)         

 NOTE. WEIGHT FRACTION OF FUEL IN TOTAL FUELS AND OF OXIDANT IN TOTAL OXIDANTS






 WARNING!!  ASSIGNED pip =   0.00000 IS NOT PERMITTED
 TO BE LESS THAN  Pinj/Pc =  1.00225. POINT OMITTED (ROCKET)





              THEORETICAL ROCKET PERFORMANCE ASSUMING EQUILIBRIUM

            COMPOSITION DURING EXPANSION FROM FINITE AREA COMBUSTOR

 Pin =   188.5 PSIA
 Ac/At = 13.4268      Pinj/Pinf =  1.001124
 CASE =                

             REACTANT                    WT FRACTION      ENERGY      TEMP
                                          (SEE NOTE)     KJ/KG-MOL      K  
 OXIDANT     O2                           0.9814677      2001.294    365.800
 OXIDANT     H2O                          0.0111194   -239541.240    365.800
 OXIDANT     CO2                          0.0074129   -390897.691    365.800
 FUEL        PMMA                         1.0000000   -442140.000    293.150

 O/F=    1.26207  %FUEL= 44.207345  R,EQ.RATIO= 1.430429  PHI,EQ.RATIO= 1.548188

                 INJECTOR  COMB END  THROAT
 Pinj/P            1.0000   1.0023   1.7378
 P, BAR            13.000   12.971   7.4809
 T, K             3199.60  3199.13  3024.31
 RHO, KG/CU M    1.1695 0 1.1671 0 7.2003-1
 H, KJ/KG        -2037.30 -2038.55 -2630.10
 U, KJ/KG        -3148.85 -3149.92 -3669.07
 G, KJ/KG        -38296.1 -38293.2 -36903.6
 S, KJ/(KG)(K)    11.3323  11.3327  11.3327

 M, (1/n)          23.933   23.934   24.202
 (dLV/dLP)t      -1.02235 -1.02234 -1.01607
 (dLV/dLT)p        1.4392   1.4391   1.3338
 Cp, KJ/(KG)(K)    5.0004   5.0002   4.3737
 GAMMAs            1.1384   1.1384   1.1411
 SON VEL,M/SEC     1124.9   1124.8   1088.9
 MACH NUMBER        0.000    0.044    1.000

 PERFORMANCE PARAMETERS

 Ae/At                      13.428   1.0000
 CSTAR, M/SEC               1656.3   1656.3
 CF                         0.0302   0.6574
 Ivac, M/SEC               22265.5   2043.0
 Isp, M/SEC                   50.0   1088.9


 MOLE FRACTIONS

 *CO              0.37438  0.37437  0.37048
 *CO2             0.15626  0.15628  0.16613
 *H               0.02400  0.02400  0.01924
 HCO              0.00001  0.00001  0.00000
 HO2              0.00001  0.00001  0.00001
 *H2              0.09478  0.09478  0.09546
 H2O              0.30804  0.30806  0.31895
 *O               0.00452  0.00452  0.00266
 *OH              0.03224  0.03223  0.02355
 *O2              0.00574  0.00574  0.00352

  * THERMODYNAMIC PROPERTIES FITTED TO 20000.K

    PRODUCTS WHICH WERE CONSIDERED BUT WHOSE MOLE FRACTIONS
    WERE LESS THAN 5.000000E-06 FOR ALL ASSIGNED CONDITIONS

 *C              *CH             CH2             CH3             CH2OH          
 CH3O            CH4             CH3OH           CH3OOH          COOH           
 *C2             C2H             C2H2,acetylene  C2H2,vinylidene CH2CO,ketene   
 O(CH)2O         HO(CO)2OH       C2H3,vinyl      CH3CO,acetyl    C2H4           
 C2H4O,ethylen-o CH3CHO,ethanal  CH3COOH         OHCH2COOH       C2H5           
 C2H6            C2H5OH          CH3OCH3         CH3O2CH3        C2O            
 *C3             C3H3,1-propynl  C3H3,2-propynl  C3H4,allene     C3H4,propyne   
 C3H4,cyclo-     C3H5,allyl      C3H6,propylene  C3H6,cyclo-     C3H6O,propylox 
 C3H6O,acetone   C3H6O,propanal  C3H7,n-propyl   C3H7,i-propyl   C3H8           
 C3H8O,1propanol C3H8O,2propanol C3O2            *C4             C4H2,butadiyne 
 C4H4,1,3-cyclo- C4H6,butadiene  C4H6,1butyne    C4H6,2butyne    C4H6,cyclo-    
 C4H8,1-butene   C4H8,cis2-buten C4H8,tr2-butene C4H8,isobutene  C4H8,cyclo-    
 (CH3COOH)2      C4H9,n-butyl    C4H9,i-butyl    C4H9,s-butyl    C4H9,t-butyl   
 C4H10,n-butane  C4H10,isobutane *C5             C5H6,1,3cyclo-  C5H8,cyclo-    
 C5H10,1-pentene C5H10,cyclo-    C5H11,pentyl    C5H11,t-pentyl  C5H12,n-pentane
 C5H12,i-pentane CH3C(CH3)2CH3   C6H2            C6H5,phenyl     C6H5O,phenoxy  
 C6H6            C6H5OH,phenol   C6H10,cyclo-    C6H12,1-hexene  C6H12,cyclo-   
 C6H13,n-hexyl   C6H14,n-hexane  C7H7,benzyl     C7H8            C7H8O,cresol-mx
 C7H14,1-heptene C7H15,n-heptyl  C7H16,n-heptane C7H16,2-methylh C8H8,styrene   
 C8H10,ethylbenz C8H16,1-octene  C8H17,n-octyl   C8H18,n-octane  C8H18,isooctane
 C9H19,n-nonyl   C10H8,naphthale C10H21,n-decyl  C12H9,o-bipheny C12H10,biphenyl
 HCCO            HCHO,formaldehy HCOOH           H2O2            (HCOOH)2       
 O3              C(gr)           H2O(cr)         H2O(L)         

 NOTE. WEIGHT FRACTION OF FUEL IN TOTAL FUELS AND OF OXIDANT IN TOTAL OXIDANTS






 WARNING!!  ASSIGNED pip =   0.00000 IS NOT PERMITTED
 TO BE LESS THAN  Pinj/Pc =  1.00225. POINT OMITTED (ROCKET)





              THEORETICAL ROCKET PERFORMANCE ASSUMING EQUILIBRIUM

            COMPOSITION DURING EXPANSION FROM FINITE AREA COMBUSTOR

 Pin =   188.5 PSIA
 Ac/At = 13.4268      Pinj/Pinf =  1.001124
 CASE =                

             REACTANT                    WT FRACTION      ENERGY      TEMP
                                          (SEE NOTE)     KJ/KG-MOL      K  
 OXIDANT     O2                           0.9814677      2001.294    365.800
 OXIDANT     H2O                          0.0111194   -239541.240    365.800
 OXIDANT     CO2                          0.0074129   -390897.691    365.800
 FUEL        PMMA                         1.0000000   -442140.000    293.150

 O/F=    1.26207  %FUEL= 44.207345  R,EQ.RATIO= 1.430429  PHI,EQ.RATIO= 1.548188

                 INJECTOR  COMB END  THROAT
 Pinj/P            1.0000   1.0023   1.7378
 P, BAR            13.000   12.971   7.4809
 T, K             3199.60  3199.13  3024.31
 RHO, KG/CU M    1.1695 0 1.1671 0 7.2003-1
 H, KJ/KG        -2037.30 -2038.55 -2630.10
 U, KJ/KG        -3148.85 -3149.92 -3669.07
 G, KJ/KG        -38296.1 -38293.2 -36903.6
 S, KJ/(KG)(K)    11.3323  11.3327  11.3327

 M, (1/n)          23.933   23.934   24.202
 (dLV/dLP)t      -1.02235 -1.02234 -1.01607
 (dLV/dLT)p        1.4392   1.4391   1.3338
 Cp, KJ/(KG)(K)    5.0004   5.0002   4.3737
 GAMMAs            1.1384   1.1384   1.1411
 SON VEL,M/SEC     1124.9   1124.8   1088.9
 MACH NUMBER        0.000    0.044    1.000

 PERFORMANCE PARAMETERS

 Ae/At                      13.428   1.0000
 CSTAR, M/SEC               1656.3   1656.3
 CF                         0.0302   0.6574
 Ivac, M/SEC               22265.5   2043.0
 Isp, M/SEC                   50.0   1088.9


 MOLE FRACTIONS

 *CO              0.37438  0.37437  0.37048
 *CO2             0.15626  0.15628  0.16613
 *H               0.02400  0.02400  0.01924
 HCO              0.00001  0.00001  0.00000
 HO2              0.00001  0.00001  0.00001
 *H2              0.09478  0.09478  0.09546
 H2O              0.30804  0.30806  0.31895
 *O               0.00452  0.00452  0.00266
 *OH              0.03224  0.03223  0.02355
 *O2              0.00574  0.00574  0.00352

  * THERMODYNAMIC PROPERTIES FITTED TO 20000.K

    PRODUCTS WHICH WERE CONSIDERED BUT WHOSE MOLE FRACTIONS
    WERE LESS THAN 5.000000E-06 FOR ALL ASSIGNED CONDITIONS

 *C              *CH             CH2             CH3             CH2OH          
 CH3O            CH4             CH3OH           CH3OOH          COOH           
 *C2             C2H             C2H2,acetylene  C2H2,vinylidene CH2CO,ketene   
 O(CH)2O         HO(CO)2OH       C2H3,vinyl      CH3CO,acetyl    C2H4           
 C2H4O,ethylen-o CH3CHO,ethanal  CH3COOH         OHCH2COOH       C2H5           
 C2H6            C2H5OH          CH3OCH3         CH3O2CH3        C2O            
 *C3             C3H3,1-propynl  C3H3,2-propynl  C3H4,allene     C3H4,propyne   
 C3H4,cyclo-     C3H5,allyl      C3H6,propylene  C3H6,cyclo-     C3H6O,propylox 
 C3H6O,acetone   C3H6O,propanal  C3H7,n-propyl   C3H7,i-propyl   C3H8           
 C3H8O,1propanol C3H8O,2propanol C3O2            *C4             C4H2,butadiyne 
 C4H4,1,3-cyclo- C4H6,butadiene  C4H6,1butyne    C4H6,2butyne    C4H6,cyclo-    
 C4H8,1-butene   C4H8,cis2-buten C4H8,tr2-butene C4H8,isobutene  C4H8,cyclo-    
 (CH3COOH)2      C4H9,n-butyl    C4H9,i-butyl    C4H9,s-butyl    C4H9,t-butyl   
 C4H10,n-butane  C4H10,isobutane *C5             C5H6,1,3cyclo-  C5H8,cyclo-    
 C5H10,1-pentene C5H10,cyclo-    C5H11,pentyl    C5H11,t-pentyl  C5H12,n-pentane
 C5H12,i-pentane CH3C(CH3)2CH3   C6H2            C6H5,phenyl     C6H5O,phenoxy  
 C6H6            C6H5OH,phenol   C6H10,cyclo-    C6H12,1-hexene  C6H12,cyclo-   
 C6H13,n-hexyl   C6H14,n-hexane  C7H7,benzyl     C7H8            C7H8O,cresol-mx
 C7H14,1-heptene C7H15,n-heptyl  C7H16,n-heptane C7H16,2-methylh C8H8,styrene   
 C8H10,ethylbenz C8H16,1-octene  C8H17,n-octyl   C8H18,n-octane  C8H18,isooctane
 C9H19,n-nonyl   C10H8,naphthale C10H21,n-decyl  C12H9,o-bipheny C12H10,biphenyl
 HCCO            HCHO,formaldehy HCOOH           H2O2            (HCOOH)2       
 O3              C(gr)           H2O(cr)         H2O(L)         

 NOTE. WEIGHT FRACTION OF FUEL IN TOTAL FUELS AND OF OXIDANT IN TOTAL OXIDANTS





   4    5    2340.134     -19.490     -11.123     -15.506





              THEORETICAL ROCKET PERFORMANCE ASSUMING EQUILIBRIUM

            COMPOSITION DURING EXPANSION FROM FINITE AREA COMBUSTOR

 Pin =   188.5 PSIA
 Ac/At = 13.4268      Pinj/Pinf =  1.001124
 CASE =                

             REACTANT                    WT FRACTION      ENERGY      TEMP
                                          (SEE NOTE)     KJ/KG-MOL      K  
 OXIDANT     O2                           0.9814677      2001.294    365.800
 OXIDANT     H2O                          0.0111194   -239541.240    365.800
 OXIDANT     CO2                          0.0074129   -390897.691    365.800
 FUEL        PMMA                         1.0000000   -442140.000    293.150

 O/F=    1.26207  %FUEL= 44.207345  R,EQ.RATIO= 1.430429  PHI,EQ.RATIO= 1.548188

                 INJECTOR  COMB END  THROAT     EXIT
 Pinj/P            1.0000   1.0023   1.7378   13.427
 P, BAR            13.000   12.971   7.4809  0.96821
 T, K             3199.60  3199.13  3024.31  2340.13
 RHO, KG/CU M    1.1695 0 1.1671 0 7.2003-1 1.2344-1
 H, KJ/KG        -2037.30 -2038.55 -2630.10 -4492.77
 U, KJ/KG        -3148.85 -3149.92 -3669.07 -5277.09
 G, KJ/KG        -38296.1 -38293.2 -36903.6 -31012.7
 S, KJ/(KG)(K)    11.3323  11.3327  11.3327  11.3327

 M, (1/n)          23.933   23.934   24.202   24.807
 (dLV/dLP)t      -1.02235 -1.02234 -1.01607 -1.00169
 (dLV/dLT)p        1.4392   1.4391   1.3338   1.0435
 Cp, KJ/(KG)(K)    5.0004   5.0002   4.3737   2.3028
 GAMMAs            1.1384   1.1384   1.1411   1.1860
 SON VEL,M/SEC     1124.9   1124.8   1088.9    964.5
 MACH NUMBER        0.000    0.044    1.000    2.298

 PERFORMANCE PARAMETERS

 Ae/At                      13.428   1.0000   2.8659
 CSTAR, M/SEC               1656.3   1656.3   1656.3
 CF                         0.0302   0.6574   1.3380
 Ivac, M/SEC               22265.5   2043.0   2570.0
 Isp, M/SEC                   50.0   1088.9   2216.1


 MOLE FRACTIONS

 *CO              0.37438  0.37437  0.37048  0.35670
 *CO2             0.15626  0.15628  0.16613  0.19333
 *H               0.02400  0.02400  0.01924  0.00397
 HCO              0.00001  0.00001  0.00000  0.00000
 HO2              0.00001  0.00001  0.00001  0.00000
 *H2              0.09478  0.09478  0.09546  0.10810
 H2O              0.30804  0.30806  0.31895  0.33545
 *O               0.00452  0.00452  0.00266  0.00005
 *OH              0.03224  0.03223  0.02355  0.00233
 *O2              0.00574  0.00574  0.00352  0.00007

  * THERMODYNAMIC PROPERTIES FITTED TO 20000.K

    PRODUCTS WHICH WERE CONSIDERED BUT WHOSE MOLE FRACTIONS
    WERE LESS THAN 5.000000E-06 FOR ALL ASSIGNED CONDITIONS

 *C              *CH             CH2             CH3             CH2OH          
 CH3O            CH4             CH3OH           CH3OOH          COOH           
 *C2             C2H             C2H2,acetylene  C2H2,vinylidene CH2CO,ketene   
 O(CH)2O         HO(CO)2OH       C2H3,vinyl      CH3CO,acetyl    C2H4           
 C2H4O,ethylen-o CH3CHO,ethanal  CH3COOH         OHCH2COOH       C2H5           
 C2H6            C2H5OH          CH3OCH3         CH3O2CH3        C2O            
 *C3             C3H3,1-propynl  C3H3,2-propynl  C3H4,allene     C3H4,propyne   
 C3H4,cyclo-     C3H5,allyl      C3H6,propylene  C3H6,cyclo-     C3H6O,propylox 
 C3H6O,acetone   C3H6O,propanal  C3H7,n-propyl   C3H7,i-propyl   C3H8           
 C3H8O,1propanol C3H8O,2propanol C3O2            *C4             C4H2,butadiyne 
 C4H4,1,3-cyclo- C4H6,butadiene  C4H6,1butyne    C4H6,2butyne    C4H6,cyclo-    
 C4H8,1-butene   C4H8,cis2-buten C4H8,tr2-butene C4H8,isobutene  C4H8,cyclo-    
 (CH3COOH)2      C4H9,n-butyl    C4H9,i-butyl    C4H9,s-butyl    C4H9,t-butyl   
 C4H10,n-butane  C4H10,isobutane *C5             C5H6,1,3cyclo-  C5H8,cyclo-    
 C5H10,1-pentene C5H10,cyclo-    C5H11,pentyl    C5H11,t-pentyl  C5H12,n-pentane
 C5H12,i-pentane CH3C(CH3)2CH3   C6H2            C6H5,phenyl     C6H5O,phenoxy  
 C6H6            C6H5OH,phenol   C6H10,cyclo-    C6H12,1-hexene  C6H12,cyclo-   
 C6H13,n-hexyl   C6H14,n-hexane  C7H7,benzyl     C7H8            C7H8O,cresol-mx
 C7H14,1-heptene C7H15,n-heptyl  C7H16,n-heptane C7H16,2-methylh C8H8,styrene   
 C8H10,ethylbenz C8H16,1-octene  C8H17,n-octyl   C8H18,n-octane  C8H18,isooctane
 C9H19,n-nonyl   C10H8,naphthale C10H21,n-decyl  C12H9,o-bipheny C12H10,biphenyl
 HCCO            HCHO,formaldehy HCOOH           H2O2            (HCOOH)2       
 O3              C(gr)           H2O(cr)         H2O(L)         

 NOTE. WEIGHT FRACTION OF FUEL IN TOTAL FUELS AND OF OXIDANT IN TOTAL OXIDANTS



