
 *******************************************************************************

         NASA-GLENN CHEMICAL EQUILIBRIUM PROGRAM CEA2, MAY 21, 2004
                   BY  BONNIE MCBRIDE AND SANFORD GORDON
      REFS: NASA RP-1311, PART I, 1994 AND NASA RP-1311, PART II, 1996

 *******************************************************************************



 prob rocket fac p,bar=9.89,ac/at=29.7520661157,
 o/f=45.2717340947, pi/pe=1, eq
 react
 	oxid=O2(L) wt=100
 	fuel=PMMA  wt=100 t,k=293.15
 	h,kj/mol=-442.14  C 5 H 8 O 2
 end

 OPTIONS: TP=F  HP=F  SP=F  TV=F  UV=F  SV=F  DETN=F  SHOCK=F  REFL=F  INCD=F
 RKT=T  FROZ=F  EQL=T  IONS=F  SIUNIT=T  DEBUGF=F  SHKDBG=F  DETDBG=T  TRNSPT=F

 TRACE= 0.00E+00  S/R= 0.000000E+00  H/R= 0.000000E+00  U/R= 0.000000E+00

 Pc,BAR =     9.890000

 Pc/P =     1.0000

 SUBSONIC AREA RATIOS =

 SUPERSONIC AREA RATIOS =

 NFZ=  1  Mdot/Ac= 0.000000E+00  Ac/At= 2.975207E+01

    REACTANT          WT.FRAC   (ENERGY/R),K   TEMP,K  DENSITY
        EXPLODED FORMULA
 O: O2(L)            1.000000  -0.156101E+04    90.17  0.0000
          O  2.00000
 F: PMMA             1.000000  -0.531769E+05   293.15  0.0000
          C  5.00000  H  8.00000  O  2.00000

  SPECIES BEING CONSIDERED IN THIS SYSTEM
 (CONDENSED PHASE MAY HAVE NAME LISTED SEVERAL TIMES)
  LAST thermo.inp UPDATE:    9/09/04

  g 7/97  *C               tpis79  *CH              g 4/02  CH2            
  g 4/02  CH3              g11/00  CH2OH            g 7/00  CH3O           
  g 8/99  CH4              g 7/00  CH3OH            srd 01  CH3OOH         
  tpis79  *CO              g 9/99  *CO2             tpis91  COOH           
  tpis91  *C2              g 6/01  C2H              g 1/91  C2H2,acetylene 
  g 5/01  C2H2,vinylidene  g 4/02  CH2CO,ketene     g 3/02  O(CH)2O        
  srd 01  HO(CO)2OH        g 7/01  C2H3,vinyl       g 6/96  CH3CO,acetyl   
  g 1/00  C2H4             g 8/88  C2H4O,ethylen-o  g 8/88  CH3CHO,ethanal 
  g 6/00  CH3COOH          srd 01  OHCH2COOH        g 7/00  C2H5           
  g 7/00  C2H6             g 8/88  C2H5OH           g 7/00  CH3OCH3        
  srd 01  CH3O2CH3         g 8/00  C2O              tpis79  *C3            
  n 4/98  C3H3,1-propynl   n 4/98  C3H3,2-propynl   g 2/00  C3H4,allene    
  g 1/00  C3H4,propyne     g 5/90  C3H4,cyclo-      g 3/01  C3H5,allyl     
  g 2/00  C3H6,propylene   g 1/00  C3H6,cyclo-      g 6/01  C3H6O,propylox 
  g 6/97  C3H6O,acetone    g 1/02  C3H6O,propanal   g 7/01  C3H7,n-propyl  
  g 9/85  C3H7,i-propyl    g 2/00  C3H8             g 2/00  C3H8O,1propanol
  g 2/00  C3H8O,2propanol  g 7/88  C3O2             g tpis  *C4            
  g 7/01  C4H2,butadiyne   g 8/00  C4H4,1,3-cyclo-  n10/92  C4H6,butadiene 
  n10/93  C4H6,1butyne     n10/93  C4H6,2butyne     g 8/00  C4H6,cyclo-    
  n 4/88  C4H8,1-butene    n 4/88  C4H8,cis2-buten  n 4/88  C4H8,tr2-butene
  n 4/88  C4H8,isobutene   g 8/00  C4H8,cyclo-      g10/00  (CH3COOH)2     
  n10/84  C4H9,n-butyl     n10/84  C4H9,i-butyl     g 1/93  C4H9,s-butyl   
  g 1/93  C4H9,t-butyl     g12/00  C4H10,n-butane   g 8/00  C4H10,isobutane
  g 8/00  *C5              g 5/90  C5H6,1,3cyclo-   g 1/93  C5H8,cyclo-    
  n 4/87  C5H10,1-pentene  g 2/01  C5H10,cyclo-     n10/84  C5H11,pentyl   
  g 1/93  C5H11,t-pentyl   n10/85  C5H12,n-pentane  n10/85  C5H12,i-pentane
  n10/85  CH3C(CH3)2CH3    g 2/93  C6H2             g11/00  C6H5,phenyl    
  g 8/00  C6H5O,phenoxy    g 8/00  C6H6             g 8/00  C6H5OH,phenol  
  g 1/93  C6H10,cyclo-     n 4/87  C6H12,1-hexene   g 6/90  C6H12,cyclo-   
  n10/83  C6H13,n-hexyl    g 6/01  C6H14,n-hexane   g 7/01  C7H7,benzyl    
  g 1/93  C7H8             g12/00  C7H8O,cresol-mx  n 4/87  C7H14,1-heptene
  n10/83  C7H15,n-heptyl   n10/85  C7H16,n-heptane  n10/85  C7H16,2-methylh
  n 4/89  C8H8,styrene     n10/86  C8H10,ethylbenz  n 4/87  C8H16,1-octene 
  n10/83  C8H17,n-octyl    n 4/85  C8H18,n-octane   n 4/85  C8H18,isooctane
  n10/83  C9H19,n-nonyl    g 3/01  C10H8,naphthale  n10/83  C10H21,n-decyl 
  g 8/00  C12H9,o-bipheny  g 8/00  C12H10,biphenyl  g 6/97  *H             
  g 1/01  HCO              g 6/01  HCCO             g 4/02  HO2            
  tpis78  *H2              g 5/01  HCHO,formaldehy  g 6/01  HCOOH          
  g 8/89  H2O              g 6/99  H2O2             g 6/01  (HCOOH)2       
  g 5/97  *O               g 4/02  *OH              tpis89  *O2            
  g 8/01  O3               n 4/83  C(gr)            n 4/83  C(gr)          
  n 4/83  C(gr)            g11/99  H2O(cr)          g 8/01  H2O(L)         
  g 8/01  H2O(L)         

 O/F =  45.271734

                       EFFECTIVE FUEL     EFFECTIVE OXIDANT        MIXTURE
 ENTHALPY                  h(2)/R              h(1)/R               h0/R
 (KG-MOL)(K)/KG       -0.53115398E+03     -0.48783267E+02     -0.59208005E+02

 KG-FORM.WT./KG             bi(2)               bi(1)               b0i
  *O                   0.19976863E-01      0.62502344E-01      0.61583306E-01
  *C                   0.49942157E-01      0.00000000E+00      0.10793232E-02
  *H                   0.79907451E-01      0.00000000E+00      0.17269172E-02

 POINT ITN      T            O           C           H 
   1   31     447.056     -11.352    -110.287     -39.004
   2    1     447.056     -11.366    -110.287     -39.011
 Pinf/Pt = 1.871698
   3    3     377.321     -11.596    -129.798     -45.126
 Pinf/Pt = 1.879450
   3    2     376.895     -11.598    -129.940     -45.171
   4    1     447.051     -11.366    -110.289     -39.011
   4    1     447.041     -11.366    -110.291     -39.012
   4    1     447.030     -11.366    -110.293     -39.013
   4    1     447.025     -11.366    -110.295     -39.013
   4    1     447.025     -11.366    -110.295     -39.013
   2    1     447.056     -11.352    -110.287     -39.004
 Pinf/Pt = 1.871698
   3    3     377.321     -11.582    -129.798     -45.119
 Pinf/Pt = 1.879450
   3    2     376.895     -11.584    -129.940     -45.164
   4    1     447.051     -11.352    -110.289     -39.004
   4    1     447.041     -11.352    -110.291     -39.005
   4    1     447.030     -11.352    -110.293     -39.006
   4    1     447.025     -11.352    -110.295     -39.006
   4    1     447.025     -11.352    -110.295     -39.006
 END OF CHAMBER ITERATIONS

 WARNING!!  ASSIGNED pip =   1.00000 IS NOT PERMITTED
 TO BE LESS THAN  Pinj/Pc =  1.00052. POINT OMITTED (ROCKET)





              THEORETICAL ROCKET PERFORMANCE ASSUMING EQUILIBRIUM

            COMPOSITION DURING EXPANSION FROM FINITE AREA COMBUSTOR

 Pin =   143.4 PSIA
 Ac/At = 29.7521      Pinj/Pinf =  1.000261
 CASE =                

             REACTANT                    WT FRACTION      ENERGY      TEMP
                                          (SEE NOTE)     KJ/KG-MOL      K  
 OXIDANT     O2(L)                        1.0000000    -12979.000     90.170
 FUEL        PMMA                         1.0000000   -442140.000    293.150

 O/F=   45.27173  %FUEL=  2.161147  R,EQ.RATIO= 0.049073  PHI,EQ.RATIO= 0.042360

                 INJECTOR  COMB END  THROAT
 Pinj/P            1.0000   1.0005   1.8799
 P, BAR            9.8900   9.8848   5.2608
 T, K              447.06   447.02   376.90
 RHO, KG/CU M    8.5215 0 8.5177 0 5.3767 0
 H, KJ/KG         -492.29  -492.32  -559.63
 U, KJ/KG         -608.34  -608.37  -657.47
 G, KJ/KG        -3291.33 -3291.20 -2919.42
 S, KJ/(KG)(K)     6.2611   6.2611   6.2611

 M, (1/n)          32.027   32.027   32.027
 (dLV/dLP)t      -1.00000 -1.00000 -1.00000
 (dLV/dLT)p        1.0000   1.0000   1.0000
 Cp, KJ/(KG)(K)    0.9711   0.9711   0.9490
 GAMMAs            1.3649   1.3649   1.3766
 SON VEL,M/SEC      398.0    398.0    367.0
 MACH NUMBER        0.000    0.020    1.000

 PERFORMANCE PARAMETERS

 Ae/At                      29.754   1.0000
 CSTAR, M/SEC                501.1    501.1
 CF                         0.0155   0.7324
 Ivac, M/SEC               14913.0    633.6
 Isp, M/SEC                    7.8    367.0


 MOLE FRACTIONS

 *CO2             0.03457  0.03457  0.03457
 H2O              0.02765  0.02765  0.02765
 *O2              0.93778  0.93778  0.93778

  * THERMODYNAMIC PROPERTIES FITTED TO 20000.K

    PRODUCTS WHICH WERE CONSIDERED BUT WHOSE MOLE FRACTIONS
    WERE LESS THAN 5.000000E-06 FOR ALL ASSIGNED CONDITIONS

 *C              *CH             CH2             CH3             CH2OH          
 CH3O            CH4             CH3OH           CH3OOH          *CO            
 COOH            *C2             C2H             C2H2,acetylene  C2H2,vinylidene
 CH2CO,ketene    O(CH)2O         HO(CO)2OH       C2H3,vinyl      CH3CO,acetyl   
 C2H4            C2H4O,ethylen-o CH3CHO,ethanal  CH3COOH         OHCH2COOH      
 C2H5            C2H6            C2H5OH          CH3OCH3         CH3O2CH3       
 C2O             *C3             C3H3,1-propynl  C3H3,2-propynl  C3H4,allene    
 C3H4,propyne    C3H4,cyclo-     C3H5,allyl      C3H6,propylene  C3H6,cyclo-    
 C3H6O,propylox  C3H6O,acetone   C3H6O,propanal  C3H7,n-propyl   C3H7,i-propyl  
 C3H8            C3H8O,1propanol C3H8O,2propanol C3O2            *C4            
 C4H2,butadiyne  C4H4,1,3-cyclo- C4H6,butadiene  C4H6,1butyne    C4H6,2butyne   
 C4H6,cyclo-     C4H8,1-butene   C4H8,cis2-buten C4H8,tr2-butene C4H8,isobutene 
 C4H8,cyclo-     (CH3COOH)2      C4H9,n-butyl    C4H9,i-butyl    C4H9,s-butyl   
 C4H9,t-butyl    C4H10,n-butane  C4H10,isobutane *C5             C5H6,1,3cyclo- 
 C5H8,cyclo-     C5H10,1-pentene C5H10,cyclo-    C5H11,pentyl    C5H11,t-pentyl 
 C5H12,n-pentane C5H12,i-pentane CH3C(CH3)2CH3   C6H2            C6H5,phenyl    
 C6H5O,phenoxy   C6H6            C6H5OH,phenol   C6H10,cyclo-    C6H12,1-hexene 
 C6H12,cyclo-    C6H13,n-hexyl   C6H14,n-hexane  C7H7,benzyl     C7H8           
 C7H8O,cresol-mx C7H14,1-heptene C7H15,n-heptyl  C7H16,n-heptane C7H16,2-methylh
 C8H8,styrene    C8H10,ethylbenz C8H16,1-octene  C8H17,n-octyl   C8H18,n-octane 
 C8H18,isooctane C9H19,n-nonyl   C10H8,naphthale C10H21,n-decyl  C12H9,o-bipheny
 C12H10,biphenyl *H              HCO             HCCO            HO2            
 *H2             HCHO,formaldehy HCOOH           H2O2            (HCOOH)2       
 *O              *OH             O3              C(gr)           H2O(cr)        
 H2O(L)         

 NOTE. WEIGHT FRACTION OF FUEL IN TOTAL FUELS AND OF OXIDANT IN TOTAL OXIDANTS






 WARNING!!  ASSIGNED pip =   0.00000 IS NOT PERMITTED
 TO BE LESS THAN  Pinj/Pc =  1.00052. POINT OMITTED (ROCKET)





              THEORETICAL ROCKET PERFORMANCE ASSUMING EQUILIBRIUM

            COMPOSITION DURING EXPANSION FROM FINITE AREA COMBUSTOR

 Pin =   143.4 PSIA
 Ac/At = 29.7521      Pinj/Pinf =  1.000261
 CASE =                

             REACTANT                    WT FRACTION      ENERGY      TEMP
                                          (SEE NOTE)     KJ/KG-MOL      K  
 OXIDANT     O2(L)                        1.0000000    -12979.000     90.170
 FUEL        PMMA                         1.0000000   -442140.000    293.150

 O/F=   45.27173  %FUEL=  2.161147  R,EQ.RATIO= 0.049073  PHI,EQ.RATIO= 0.042360

                 INJECTOR  COMB END  THROAT
 Pinj/P            1.0000   1.0005   1.8799
 P, BAR            9.8900   9.8848   5.2608
 T, K              447.06   447.02   376.90
 RHO, KG/CU M    8.5215 0 8.5177 0 5.3767 0
 H, KJ/KG         -492.29  -492.32  -559.63
 U, KJ/KG         -608.34  -608.37  -657.47
 G, KJ/KG        -3291.33 -3291.20 -2919.42
 S, KJ/(KG)(K)     6.2611   6.2611   6.2611

 M, (1/n)          32.027   32.027   32.027
 (dLV/dLP)t      -1.00000 -1.00000 -1.00000
 (dLV/dLT)p        1.0000   1.0000   1.0000
 Cp, KJ/(KG)(K)    0.9711   0.9711   0.9490
 GAMMAs            1.3649   1.3649   1.3766
 SON VEL,M/SEC      398.0    398.0    367.0
 MACH NUMBER        0.000    0.020    1.000

 PERFORMANCE PARAMETERS

 Ae/At                      29.754   1.0000
 CSTAR, M/SEC                501.1    501.1
 CF                         0.0155   0.7324
 Ivac, M/SEC               14913.0    633.6
 Isp, M/SEC                    7.8    367.0


 MOLE FRACTIONS

 *CO2             0.03457  0.03457  0.03457
 H2O              0.02765  0.02765  0.02765
 *O2              0.93778  0.93778  0.93778

  * THERMODYNAMIC PROPERTIES FITTED TO 20000.K

    PRODUCTS WHICH WERE CONSIDERED BUT WHOSE MOLE FRACTIONS
    WERE LESS THAN 5.000000E-06 FOR ALL ASSIGNED CONDITIONS

 *C              *CH             CH2             CH3             CH2OH          
 CH3O            CH4             CH3OH           CH3OOH          *CO            
 COOH            *C2             C2H             C2H2,acetylene  C2H2,vinylidene
 CH2CO,ketene    O(CH)2O         HO(CO)2OH       C2H3,vinyl      CH3CO,acetyl   
 C2H4            C2H4O,ethylen-o CH3CHO,ethanal  CH3COOH         OHCH2COOH      
 C2H5            C2H6            C2H5OH          CH3OCH3         CH3O2CH3       
 C2O             *C3             C3H3,1-propynl  C3H3,2-propynl  C3H4,allene    
 C3H4,propyne    C3H4,cyclo-     C3H5,allyl      C3H6,propylene  C3H6,cyclo-    
 C3H6O,propylox  C3H6O,acetone   C3H6O,propanal  C3H7,n-propyl   C3H7,i-propyl  
 C3H8            C3H8O,1propanol C3H8O,2propanol C3O2            *C4            
 C4H2,butadiyne  C4H4,1,3-cyclo- C4H6,butadiene  C4H6,1butyne    C4H6,2butyne   
 C4H6,cyclo-     C4H8,1-butene   C4H8,cis2-buten C4H8,tr2-butene C4H8,isobutene 
 C4H8,cyclo-     (CH3COOH)2      C4H9,n-butyl    C4H9,i-butyl    C4H9,s-butyl   
 C4H9,t-butyl    C4H10,n-butane  C4H10,isobutane *C5             C5H6,1,3cyclo- 
 C5H8,cyclo-     C5H10,1-pentene C5H10,cyclo-    C5H11,pentyl    C5H11,t-pentyl 
 C5H12,n-pentane C5H12,i-pentane CH3C(CH3)2CH3   C6H2            C6H5,phenyl    
 C6H5O,phenoxy   C6H6            C6H5OH,phenol   C6H10,cyclo-    C6H12,1-hexene 
 C6H12,cyclo-    C6H13,n-hexyl   C6H14,n-hexane  C7H7,benzyl     C7H8           
 C7H8O,cresol-mx C7H14,1-heptene C7H15,n-heptyl  C7H16,n-heptane C7H16,2-methylh
 C8H8,styrene    C8H10,ethylbenz C8H16,1-octene  C8H17,n-octyl   C8H18,n-octane 
 C8H18,isooctane C9H19,n-nonyl   C10H8,naphthale C10H21,n-decyl  C12H9,o-bipheny
 C12H10,biphenyl *H              HCO             HCCO            HO2            
 *H2             HCHO,formaldehy HCOOH           H2O2            (HCOOH)2       
 *O              *OH             O3              C(gr)           H2O(cr)        
 H2O(L)         

 NOTE. WEIGHT FRACTION OF FUEL IN TOTAL FUELS AND OF OXIDANT IN TOTAL OXIDANTS






 WARNING!!  ASSIGNED pip =   0.00000 IS NOT PERMITTED
 TO BE LESS THAN  Pinj/Pc =  1.00052. POINT OMITTED (ROCKET)





              THEORETICAL ROCKET PERFORMANCE ASSUMING EQUILIBRIUM

            COMPOSITION DURING EXPANSION FROM FINITE AREA COMBUSTOR

 Pin =   143.4 PSIA
 Ac/At = 29.7521      Pinj/Pinf =  1.000261
 CASE =                

             REACTANT                    WT FRACTION      ENERGY      TEMP
                                          (SEE NOTE)     KJ/KG-MOL      K  
 OXIDANT     O2(L)                        1.0000000    -12979.000     90.170
 FUEL        PMMA                         1.0000000   -442140.000    293.150

 O/F=   45.27173  %FUEL=  2.161147  R,EQ.RATIO= 0.049073  PHI,EQ.RATIO= 0.042360

                 INJECTOR  COMB END  THROAT
 Pinj/P            1.0000   1.0005   1.8799
 P, BAR            9.8900   9.8848   5.2608
 T, K              447.06   447.02   376.90
 RHO, KG/CU M    8.5215 0 8.5177 0 5.3767 0
 H, KJ/KG         -492.29  -492.32  -559.63
 U, KJ/KG         -608.34  -608.37  -657.47
 G, KJ/KG        -3291.33 -3291.20 -2919.42
 S, KJ/(KG)(K)     6.2611   6.2611   6.2611

 M, (1/n)          32.027   32.027   32.027
 (dLV/dLP)t      -1.00000 -1.00000 -1.00000
 (dLV/dLT)p        1.0000   1.0000   1.0000
 Cp, KJ/(KG)(K)    0.9711   0.9711   0.9490
 GAMMAs            1.3649   1.3649   1.3766
 SON VEL,M/SEC      398.0    398.0    367.0
 MACH NUMBER        0.000    0.020    1.000

 PERFORMANCE PARAMETERS

 Ae/At                      29.754   1.0000
 CSTAR, M/SEC                501.1    501.1
 CF                         0.0155   0.7324
 Ivac, M/SEC               14913.0    633.6
 Isp, M/SEC                    7.8    367.0


 MOLE FRACTIONS

 *CO2             0.03457  0.03457  0.03457
 H2O              0.02765  0.02765  0.02765
 *O2              0.93778  0.93778  0.93778

  * THERMODYNAMIC PROPERTIES FITTED TO 20000.K

    PRODUCTS WHICH WERE CONSIDERED BUT WHOSE MOLE FRACTIONS
    WERE LESS THAN 5.000000E-06 FOR ALL ASSIGNED CONDITIONS

 *C              *CH             CH2             CH3             CH2OH          
 CH3O            CH4             CH3OH           CH3OOH          *CO            
 COOH            *C2             C2H             C2H2,acetylene  C2H2,vinylidene
 CH2CO,ketene    O(CH)2O         HO(CO)2OH       C2H3,vinyl      CH3CO,acetyl   
 C2H4            C2H4O,ethylen-o CH3CHO,ethanal  CH3COOH         OHCH2COOH      
 C2H5            C2H6            C2H5OH          CH3OCH3         CH3O2CH3       
 C2O             *C3             C3H3,1-propynl  C3H3,2-propynl  C3H4,allene    
 C3H4,propyne    C3H4,cyclo-     C3H5,allyl      C3H6,propylene  C3H6,cyclo-    
 C3H6O,propylox  C3H6O,acetone   C3H6O,propanal  C3H7,n-propyl   C3H7,i-propyl  
 C3H8            C3H8O,1propanol C3H8O,2propanol C3O2            *C4            
 C4H2,butadiyne  C4H4,1,3-cyclo- C4H6,butadiene  C4H6,1butyne    C4H6,2butyne   
 C4H6,cyclo-     C4H8,1-butene   C4H8,cis2-buten C4H8,tr2-butene C4H8,isobutene 
 C4H8,cyclo-     (CH3COOH)2      C4H9,n-butyl    C4H9,i-butyl    C4H9,s-butyl   
 C4H9,t-butyl    C4H10,n-butane  C4H10,isobutane *C5             C5H6,1,3cyclo- 
 C5H8,cyclo-     C5H10,1-pentene C5H10,cyclo-    C5H11,pentyl    C5H11,t-pentyl 
 C5H12,n-pentane C5H12,i-pentane CH3C(CH3)2CH3   C6H2            C6H5,phenyl    
 C6H5O,phenoxy   C6H6            C6H5OH,phenol   C6H10,cyclo-    C6H12,1-hexene 
 C6H12,cyclo-    C6H13,n-hexyl   C6H14,n-hexane  C7H7,benzyl     C7H8           
 C7H8O,cresol-mx C7H14,1-heptene C7H15,n-heptyl  C7H16,n-heptane C7H16,2-methylh
 C8H8,styrene    C8H10,ethylbenz C8H16,1-octene  C8H17,n-octyl   C8H18,n-octane 
 C8H18,isooctane C9H19,n-nonyl   C10H8,naphthale C10H21,n-decyl  C12H9,o-bipheny
 C12H10,biphenyl *H              HCO             HCCO            HO2            
 *H2             HCHO,formaldehy HCOOH           H2O2            (HCOOH)2       
 *O              *OH             O3              C(gr)           H2O(cr)        
 H2O(L)         

 NOTE. WEIGHT FRACTION OF FUEL IN TOTAL FUELS AND OF OXIDANT IN TOTAL OXIDANTS






 WARNING!!  ASSIGNED pip =   0.00000 IS NOT PERMITTED
 TO BE LESS THAN  Pinj/Pc =  1.00052. POINT OMITTED (ROCKET)





              THEORETICAL ROCKET PERFORMANCE ASSUMING EQUILIBRIUM

            COMPOSITION DURING EXPANSION FROM FINITE AREA COMBUSTOR

 Pin =   143.4 PSIA
 Ac/At = 29.7521      Pinj/Pinf =  1.000261
 CASE =                

             REACTANT                    WT FRACTION      ENERGY      TEMP
                                          (SEE NOTE)     KJ/KG-MOL      K  
 OXIDANT     O2(L)                        1.0000000    -12979.000     90.170
 FUEL        PMMA                         1.0000000   -442140.000    293.150

 O/F=   45.27173  %FUEL=  2.161147  R,EQ.RATIO= 0.049073  PHI,EQ.RATIO= 0.042360

                 INJECTOR  COMB END  THROAT
 Pinj/P            1.0000   1.0005   1.8799
 P, BAR            9.8900   9.8848   5.2608
 T, K              447.06   447.02   376.90
 RHO, KG/CU M    8.5215 0 8.5177 0 5.3767 0
 H, KJ/KG         -492.29  -492.32  -559.63
 U, KJ/KG         -608.34  -608.37  -657.47
 G, KJ/KG        -3291.33 -3291.20 -2919.42
 S, KJ/(KG)(K)     6.2611   6.2611   6.2611

 M, (1/n)          32.027   32.027   32.027
 (dLV/dLP)t      -1.00000 -1.00000 -1.00000
 (dLV/dLT)p        1.0000   1.0000   1.0000
 Cp, KJ/(KG)(K)    0.9711   0.9711   0.9490
 GAMMAs            1.3649   1.3649   1.3766
 SON VEL,M/SEC      398.0    398.0    367.0
 MACH NUMBER        0.000    0.020    1.000

 PERFORMANCE PARAMETERS

 Ae/At                      29.754   1.0000
 CSTAR, M/SEC                501.1    501.1
 CF                         0.0155   0.7324
 Ivac, M/SEC               14913.0    633.6
 Isp, M/SEC                    7.8    367.0


 MOLE FRACTIONS

 *CO2             0.03457  0.03457  0.03457
 H2O              0.02765  0.02765  0.02765
 *O2              0.93778  0.93778  0.93778

  * THERMODYNAMIC PROPERTIES FITTED TO 20000.K

    PRODUCTS WHICH WERE CONSIDERED BUT WHOSE MOLE FRACTIONS
    WERE LESS THAN 5.000000E-06 FOR ALL ASSIGNED CONDITIONS

 *C              *CH             CH2             CH3             CH2OH          
 CH3O            CH4             CH3OH           CH3OOH          *CO            
 COOH            *C2             C2H             C2H2,acetylene  C2H2,vinylidene
 CH2CO,ketene    O(CH)2O         HO(CO)2OH       C2H3,vinyl      CH3CO,acetyl   
 C2H4            C2H4O,ethylen-o CH3CHO,ethanal  CH3COOH         OHCH2COOH      
 C2H5            C2H6            C2H5OH          CH3OCH3         CH3O2CH3       
 C2O             *C3             C3H3,1-propynl  C3H3,2-propynl  C3H4,allene    
 C3H4,propyne    C3H4,cyclo-     C3H5,allyl      C3H6,propylene  C3H6,cyclo-    
 C3H6O,propylox  C3H6O,acetone   C3H6O,propanal  C3H7,n-propyl   C3H7,i-propyl  
 C3H8            C3H8O,1propanol C3H8O,2propanol C3O2            *C4            
 C4H2,butadiyne  C4H4,1,3-cyclo- C4H6,butadiene  C4H6,1butyne    C4H6,2butyne   
 C4H6,cyclo-     C4H8,1-butene   C4H8,cis2-buten C4H8,tr2-butene C4H8,isobutene 
 C4H8,cyclo-     (CH3COOH)2      C4H9,n-butyl    C4H9,i-butyl    C4H9,s-butyl   
 C4H9,t-butyl    C4H10,n-butane  C4H10,isobutane *C5             C5H6,1,3cyclo- 
 C5H8,cyclo-     C5H10,1-pentene C5H10,cyclo-    C5H11,pentyl    C5H11,t-pentyl 
 C5H12,n-pentane C5H12,i-pentane CH3C(CH3)2CH3   C6H2            C6H5,phenyl    
 C6H5O,phenoxy   C6H6            C6H5OH,phenol   C6H10,cyclo-    C6H12,1-hexene 
 C6H12,cyclo-    C6H13,n-hexyl   C6H14,n-hexane  C7H7,benzyl     C7H8           
 C7H8O,cresol-mx C7H14,1-heptene C7H15,n-heptyl  C7H16,n-heptane C7H16,2-methylh
 C8H8,styrene    C8H10,ethylbenz C8H16,1-octene  C8H17,n-octyl   C8H18,n-octane 
 C8H18,isooctane C9H19,n-nonyl   C10H8,naphthale C10H21,n-decyl  C12H9,o-bipheny
 C12H10,biphenyl *H              HCO             HCCO            HO2            
 *H2             HCHO,formaldehy HCOOH           H2O2            (HCOOH)2       
 *O              *OH             O3              C(gr)           H2O(cr)        
 H2O(L)         

 NOTE. WEIGHT FRACTION OF FUEL IN TOTAL FUELS AND OF OXIDANT IN TOTAL OXIDANTS






 WARNING!!  ASSIGNED pip =   0.00000 IS NOT PERMITTED
 TO BE LESS THAN  Pinj/Pc =  1.00052. POINT OMITTED (ROCKET)





              THEORETICAL ROCKET PERFORMANCE ASSUMING EQUILIBRIUM

            COMPOSITION DURING EXPANSION FROM FINITE AREA COMBUSTOR

 Pin =   143.4 PSIA
 Ac/At = 29.7521      Pinj/Pinf =  1.000261
 CASE =                

             REACTANT                    WT FRACTION      ENERGY      TEMP
                                          (SEE NOTE)     KJ/KG-MOL      K  
 OXIDANT     O2(L)                        1.0000000    -12979.000     90.170
 FUEL        PMMA                         1.0000000   -442140.000    293.150

 O/F=   45.27173  %FUEL=  2.161147  R,EQ.RATIO= 0.049073  PHI,EQ.RATIO= 0.042360

                 INJECTOR  COMB END  THROAT
 Pinj/P            1.0000   1.0005   1.8799
 P, BAR            9.8900   9.8848   5.2608
 T, K              447.06   447.02   376.90
 RHO, KG/CU M    8.5215 0 8.5177 0 5.3767 0
 H, KJ/KG         -492.29  -492.32  -559.63
 U, KJ/KG         -608.34  -608.37  -657.47
 G, KJ/KG        -3291.33 -3291.20 -2919.42
 S, KJ/(KG)(K)     6.2611   6.2611   6.2611

 M, (1/n)          32.027   32.027   32.027
 (dLV/dLP)t      -1.00000 -1.00000 -1.00000
 (dLV/dLT)p        1.0000   1.0000   1.0000
 Cp, KJ/(KG)(K)    0.9711   0.9711   0.9490
 GAMMAs            1.3649   1.3649   1.3766
 SON VEL,M/SEC      398.0    398.0    367.0
 MACH NUMBER        0.000    0.020    1.000

 PERFORMANCE PARAMETERS

 Ae/At                      29.754   1.0000
 CSTAR, M/SEC                501.1    501.1
 CF                         0.0155   0.7324
 Ivac, M/SEC               14913.0    633.6
 Isp, M/SEC                    7.8    367.0


 MOLE FRACTIONS

 *CO2             0.03457  0.03457  0.03457
 H2O              0.02765  0.02765  0.02765
 *O2              0.93778  0.93778  0.93778

  * THERMODYNAMIC PROPERTIES FITTED TO 20000.K

    PRODUCTS WHICH WERE CONSIDERED BUT WHOSE MOLE FRACTIONS
    WERE LESS THAN 5.000000E-06 FOR ALL ASSIGNED CONDITIONS

 *C              *CH             CH2             CH3             CH2OH          
 CH3O            CH4             CH3OH           CH3OOH          *CO            
 COOH            *C2             C2H             C2H2,acetylene  C2H2,vinylidene
 CH2CO,ketene    O(CH)2O         HO(CO)2OH       C2H3,vinyl      CH3CO,acetyl   
 C2H4            C2H4O,ethylen-o CH3CHO,ethanal  CH3COOH         OHCH2COOH      
 C2H5            C2H6            C2H5OH          CH3OCH3         CH3O2CH3       
 C2O             *C3             C3H3,1-propynl  C3H3,2-propynl  C3H4,allene    
 C3H4,propyne    C3H4,cyclo-     C3H5,allyl      C3H6,propylene  C3H6,cyclo-    
 C3H6O,propylox  C3H6O,acetone   C3H6O,propanal  C3H7,n-propyl   C3H7,i-propyl  
 C3H8            C3H8O,1propanol C3H8O,2propanol C3O2            *C4            
 C4H2,butadiyne  C4H4,1,3-cyclo- C4H6,butadiene  C4H6,1butyne    C4H6,2butyne   
 C4H6,cyclo-     C4H8,1-butene   C4H8,cis2-buten C4H8,tr2-butene C4H8,isobutene 
 C4H8,cyclo-     (CH3COOH)2      C4H9,n-butyl    C4H9,i-butyl    C4H9,s-butyl   
 C4H9,t-butyl    C4H10,n-butane  C4H10,isobutane *C5             C5H6,1,3cyclo- 
 C5H8,cyclo-     C5H10,1-pentene C5H10,cyclo-    C5H11,pentyl    C5H11,t-pentyl 
 C5H12,n-pentane C5H12,i-pentane CH3C(CH3)2CH3   C6H2            C6H5,phenyl    
 C6H5O,phenoxy   C6H6            C6H5OH,phenol   C6H10,cyclo-    C6H12,1-hexene 
 C6H12,cyclo-    C6H13,n-hexyl   C6H14,n-hexane  C7H7,benzyl     C7H8           
 C7H8O,cresol-mx C7H14,1-heptene C7H15,n-heptyl  C7H16,n-heptane C7H16,2-methylh
 C8H8,styrene    C8H10,ethylbenz C8H16,1-octene  C8H17,n-octyl   C8H18,n-octane 
 C8H18,isooctane C9H19,n-nonyl   C10H8,naphthale C10H21,n-decyl  C12H9,o-bipheny
 C12H10,biphenyl *H              HCO             HCCO            HO2            
 *H2             HCHO,formaldehy HCOOH           H2O2            (HCOOH)2       
 *O              *OH             O3              C(gr)           H2O(cr)        
 H2O(L)         

 NOTE. WEIGHT FRACTION OF FUEL IN TOTAL FUELS AND OF OXIDANT IN TOTAL OXIDANTS






 WARNING!!  ASSIGNED pip =   0.00000 IS NOT PERMITTED
 TO BE LESS THAN  Pinj/Pc =  1.00052. POINT OMITTED (ROCKET)





              THEORETICAL ROCKET PERFORMANCE ASSUMING EQUILIBRIUM

            COMPOSITION DURING EXPANSION FROM FINITE AREA COMBUSTOR

 Pin =   143.4 PSIA
 Ac/At = 29.7521      Pinj/Pinf =  1.000261
 CASE =                

             REACTANT                    WT FRACTION      ENERGY      TEMP
                                          (SEE NOTE)     KJ/KG-MOL      K  
 OXIDANT     O2(L)                        1.0000000    -12979.000     90.170
 FUEL        PMMA                         1.0000000   -442140.000    293.150

 O/F=   45.27173  %FUEL=  2.161147  R,EQ.RATIO= 0.049073  PHI,EQ.RATIO= 0.042360

                 INJECTOR  COMB END  THROAT
 Pinj/P            1.0000   1.0005   1.8799
 P, BAR            9.8900   9.8848   5.2608
 T, K              447.06   447.02   376.90
 RHO, KG/CU M    8.5215 0 8.5177 0 5.3767 0
 H, KJ/KG         -492.29  -492.32  -559.63
 U, KJ/KG         -608.34  -608.37  -657.47
 G, KJ/KG        -3291.33 -3291.20 -2919.42
 S, KJ/(KG)(K)     6.2611   6.2611   6.2611

 M, (1/n)          32.027   32.027   32.027
 (dLV/dLP)t      -1.00000 -1.00000 -1.00000
 (dLV/dLT)p        1.0000   1.0000   1.0000
 Cp, KJ/(KG)(K)    0.9711   0.9711   0.9490
 GAMMAs            1.3649   1.3649   1.3766
 SON VEL,M/SEC      398.0    398.0    367.0
 MACH NUMBER        0.000    0.020    1.000

 PERFORMANCE PARAMETERS

 Ae/At                      29.754   1.0000
 CSTAR, M/SEC                501.1    501.1
 CF                         0.0155   0.7324
 Ivac, M/SEC               14913.0    633.6
 Isp, M/SEC                    7.8    367.0


 MOLE FRACTIONS

 *CO2             0.03457  0.03457  0.03457
 H2O              0.02765  0.02765  0.02765
 *O2              0.93778  0.93778  0.93778

  * THERMODYNAMIC PROPERTIES FITTED TO 20000.K

    PRODUCTS WHICH WERE CONSIDERED BUT WHOSE MOLE FRACTIONS
    WERE LESS THAN 5.000000E-06 FOR ALL ASSIGNED CONDITIONS

 *C              *CH             CH2             CH3             CH2OH          
 CH3O            CH4             CH3OH           CH3OOH          *CO            
 COOH            *C2             C2H             C2H2,acetylene  C2H2,vinylidene
 CH2CO,ketene    O(CH)2O         HO(CO)2OH       C2H3,vinyl      CH3CO,acetyl   
 C2H4            C2H4O,ethylen-o CH3CHO,ethanal  CH3COOH         OHCH2COOH      
 C2H5            C2H6            C2H5OH          CH3OCH3         CH3O2CH3       
 C2O             *C3             C3H3,1-propynl  C3H3,2-propynl  C3H4,allene    
 C3H4,propyne    C3H4,cyclo-     C3H5,allyl      C3H6,propylene  C3H6,cyclo-    
 C3H6O,propylox  C3H6O,acetone   C3H6O,propanal  C3H7,n-propyl   C3H7,i-propyl  
 C3H8            C3H8O,1propanol C3H8O,2propanol C3O2            *C4            
 C4H2,butadiyne  C4H4,1,3-cyclo- C4H6,butadiene  C4H6,1butyne    C4H6,2butyne   
 C4H6,cyclo-     C4H8,1-butene   C4H8,cis2-buten C4H8,tr2-butene C4H8,isobutene 
 C4H8,cyclo-     (CH3COOH)2      C4H9,n-butyl    C4H9,i-butyl    C4H9,s-butyl   
 C4H9,t-butyl    C4H10,n-butane  C4H10,isobutane *C5             C5H6,1,3cyclo- 
 C5H8,cyclo-     C5H10,1-pentene C5H10,cyclo-    C5H11,pentyl    C5H11,t-pentyl 
 C5H12,n-pentane C5H12,i-pentane CH3C(CH3)2CH3   C6H2            C6H5,phenyl    
 C6H5O,phenoxy   C6H6            C6H5OH,phenol   C6H10,cyclo-    C6H12,1-hexene 
 C6H12,cyclo-    C6H13,n-hexyl   C6H14,n-hexane  C7H7,benzyl     C7H8           
 C7H8O,cresol-mx C7H14,1-heptene C7H15,n-heptyl  C7H16,n-heptane C7H16,2-methylh
 C8H8,styrene    C8H10,ethylbenz C8H16,1-octene  C8H17,n-octyl   C8H18,n-octane 
 C8H18,isooctane C9H19,n-nonyl   C10H8,naphthale C10H21,n-decyl  C12H9,o-bipheny
 C12H10,biphenyl *H              HCO             HCCO            HO2            
 *H2             HCHO,formaldehy HCOOH           H2O2            (HCOOH)2       
 *O              *OH             O3              C(gr)           H2O(cr)        
 H2O(L)         

 NOTE. WEIGHT FRACTION OF FUEL IN TOTAL FUELS AND OF OXIDANT IN TOTAL OXIDANTS






 WARNING!!  ASSIGNED pip =   0.00000 IS NOT PERMITTED
 TO BE LESS THAN  Pinj/Pc =  1.00052. POINT OMITTED (ROCKET)





              THEORETICAL ROCKET PERFORMANCE ASSUMING EQUILIBRIUM

            COMPOSITION DURING EXPANSION FROM FINITE AREA COMBUSTOR

 Pin =   143.4 PSIA
 Ac/At = 29.7521      Pinj/Pinf =  1.000261
 CASE =                

             REACTANT                    WT FRACTION      ENERGY      TEMP
                                          (SEE NOTE)     KJ/KG-MOL      K  
 OXIDANT     O2(L)                        1.0000000    -12979.000     90.170
 FUEL        PMMA                         1.0000000   -442140.000    293.150

 O/F=   45.27173  %FUEL=  2.161147  R,EQ.RATIO= 0.049073  PHI,EQ.RATIO= 0.042360

                 INJECTOR  COMB END  THROAT
 Pinj/P            1.0000   1.0005   1.8799
 P, BAR            9.8900   9.8848   5.2608
 T, K              447.06   447.02   376.90
 RHO, KG/CU M    8.5215 0 8.5177 0 5.3767 0
 H, KJ/KG         -492.29  -492.32  -559.63
 U, KJ/KG         -608.34  -608.37  -657.47
 G, KJ/KG        -3291.33 -3291.20 -2919.42
 S, KJ/(KG)(K)     6.2611   6.2611   6.2611

 M, (1/n)          32.027   32.027   32.027
 (dLV/dLP)t      -1.00000 -1.00000 -1.00000
 (dLV/dLT)p        1.0000   1.0000   1.0000
 Cp, KJ/(KG)(K)    0.9711   0.9711   0.9490
 GAMMAs            1.3649   1.3649   1.3766
 SON VEL,M/SEC      398.0    398.0    367.0
 MACH NUMBER        0.000    0.020    1.000

 PERFORMANCE PARAMETERS

 Ae/At                      29.754   1.0000
 CSTAR, M/SEC                501.1    501.1
 CF                         0.0155   0.7324
 Ivac, M/SEC               14913.0    633.6
 Isp, M/SEC                    7.8    367.0


 MOLE FRACTIONS

 *CO2             0.03457  0.03457  0.03457
 H2O              0.02765  0.02765  0.02765
 *O2              0.93778  0.93778  0.93778

  * THERMODYNAMIC PROPERTIES FITTED TO 20000.K

    PRODUCTS WHICH WERE CONSIDERED BUT WHOSE MOLE FRACTIONS
    WERE LESS THAN 5.000000E-06 FOR ALL ASSIGNED CONDITIONS

 *C              *CH             CH2             CH3             CH2OH          
 CH3O            CH4             CH3OH           CH3OOH          *CO            
 COOH            *C2             C2H             C2H2,acetylene  C2H2,vinylidene
 CH2CO,ketene    O(CH)2O         HO(CO)2OH       C2H3,vinyl      CH3CO,acetyl   
 C2H4            C2H4O,ethylen-o CH3CHO,ethanal  CH3COOH         OHCH2COOH      
 C2H5            C2H6            C2H5OH          CH3OCH3         CH3O2CH3       
 C2O             *C3             C3H3,1-propynl  C3H3,2-propynl  C3H4,allene    
 C3H4,propyne    C3H4,cyclo-     C3H5,allyl      C3H6,propylene  C3H6,cyclo-    
 C3H6O,propylox  C3H6O,acetone   C3H6O,propanal  C3H7,n-propyl   C3H7,i-propyl  
 C3H8            C3H8O,1propanol C3H8O,2propanol C3O2            *C4            
 C4H2,butadiyne  C4H4,1,3-cyclo- C4H6,butadiene  C4H6,1butyne    C4H6,2butyne   
 C4H6,cyclo-     C4H8,1-butene   C4H8,cis2-buten C4H8,tr2-butene C4H8,isobutene 
 C4H8,cyclo-     (CH3COOH)2      C4H9,n-butyl    C4H9,i-butyl    C4H9,s-butyl   
 C4H9,t-butyl    C4H10,n-butane  C4H10,isobutane *C5             C5H6,1,3cyclo- 
 C5H8,cyclo-     C5H10,1-pentene C5H10,cyclo-    C5H11,pentyl    C5H11,t-pentyl 
 C5H12,n-pentane C5H12,i-pentane CH3C(CH3)2CH3   C6H2            C6H5,phenyl    
 C6H5O,phenoxy   C6H6            C6H5OH,phenol   C6H10,cyclo-    C6H12,1-hexene 
 C6H12,cyclo-    C6H13,n-hexyl   C6H14,n-hexane  C7H7,benzyl     C7H8           
 C7H8O,cresol-mx C7H14,1-heptene C7H15,n-heptyl  C7H16,n-heptane C7H16,2-methylh
 C8H8,styrene    C8H10,ethylbenz C8H16,1-octene  C8H17,n-octyl   C8H18,n-octane 
 C8H18,isooctane C9H19,n-nonyl   C10H8,naphthale C10H21,n-decyl  C12H9,o-bipheny
 C12H10,biphenyl *H              HCO             HCCO            HO2            
 *H2             HCHO,formaldehy HCOOH           H2O2            (HCOOH)2       
 *O              *OH             O3              C(gr)           H2O(cr)        
 H2O(L)         

 NOTE. WEIGHT FRACTION OF FUEL IN TOTAL FUELS AND OF OXIDANT IN TOTAL OXIDANTS






 WARNING!!  ASSIGNED pip =   0.00000 IS NOT PERMITTED
 TO BE LESS THAN  Pinj/Pc =  1.00052. POINT OMITTED (ROCKET)





              THEORETICAL ROCKET PERFORMANCE ASSUMING EQUILIBRIUM

            COMPOSITION DURING EXPANSION FROM FINITE AREA COMBUSTOR

 Pin =   143.4 PSIA
 Ac/At = 29.7521      Pinj/Pinf =  1.000261
 CASE =                

             REACTANT                    WT FRACTION      ENERGY      TEMP
                                          (SEE NOTE)     KJ/KG-MOL      K  
 OXIDANT     O2(L)                        1.0000000    -12979.000     90.170
 FUEL        PMMA                         1.0000000   -442140.000    293.150

 O/F=   45.27173  %FUEL=  2.161147  R,EQ.RATIO= 0.049073  PHI,EQ.RATIO= 0.042360

                 INJECTOR  COMB END  THROAT
 Pinj/P            1.0000   1.0005   1.8799
 P, BAR            9.8900   9.8848   5.2608
 T, K              447.06   447.02   376.90
 RHO, KG/CU M    8.5215 0 8.5177 0 5.3767 0
 H, KJ/KG         -492.29  -492.32  -559.63
 U, KJ/KG         -608.34  -608.37  -657.47
 G, KJ/KG        -3291.33 -3291.20 -2919.42
 S, KJ/(KG)(K)     6.2611   6.2611   6.2611

 M, (1/n)          32.027   32.027   32.027
 (dLV/dLP)t      -1.00000 -1.00000 -1.00000
 (dLV/dLT)p        1.0000   1.0000   1.0000
 Cp, KJ/(KG)(K)    0.9711   0.9711   0.9490
 GAMMAs            1.3649   1.3649   1.3766
 SON VEL,M/SEC      398.0    398.0    367.0
 MACH NUMBER        0.000    0.020    1.000

 PERFORMANCE PARAMETERS

 Ae/At                      29.754   1.0000
 CSTAR, M/SEC                501.1    501.1
 CF                         0.0155   0.7324
 Ivac, M/SEC               14913.0    633.6
 Isp, M/SEC                    7.8    367.0


 MOLE FRACTIONS

 *CO2             0.03457  0.03457  0.03457
 H2O              0.02765  0.02765  0.02765
 *O2              0.93778  0.93778  0.93778

  * THERMODYNAMIC PROPERTIES FITTED TO 20000.K

    PRODUCTS WHICH WERE CONSIDERED BUT WHOSE MOLE FRACTIONS
    WERE LESS THAN 5.000000E-06 FOR ALL ASSIGNED CONDITIONS

 *C              *CH             CH2             CH3             CH2OH          
 CH3O            CH4             CH3OH           CH3OOH          *CO            
 COOH            *C2             C2H             C2H2,acetylene  C2H2,vinylidene
 CH2CO,ketene    O(CH)2O         HO(CO)2OH       C2H3,vinyl      CH3CO,acetyl   
 C2H4            C2H4O,ethylen-o CH3CHO,ethanal  CH3COOH         OHCH2COOH      
 C2H5            C2H6            C2H5OH          CH3OCH3         CH3O2CH3       
 C2O             *C3             C3H3,1-propynl  C3H3,2-propynl  C3H4,allene    
 C3H4,propyne    C3H4,cyclo-     C3H5,allyl      C3H6,propylene  C3H6,cyclo-    
 C3H6O,propylox  C3H6O,acetone   C3H6O,propanal  C3H7,n-propyl   C3H7,i-propyl  
 C3H8            C3H8O,1propanol C3H8O,2propanol C3O2            *C4            
 C4H2,butadiyne  C4H4,1,3-cyclo- C4H6,butadiene  C4H6,1butyne    C4H6,2butyne   
 C4H6,cyclo-     C4H8,1-butene   C4H8,cis2-buten C4H8,tr2-butene C4H8,isobutene 
 C4H8,cyclo-     (CH3COOH)2      C4H9,n-butyl    C4H9,i-butyl    C4H9,s-butyl   
 C4H9,t-butyl    C4H10,n-butane  C4H10,isobutane *C5             C5H6,1,3cyclo- 
 C5H8,cyclo-     C5H10,1-pentene C5H10,cyclo-    C5H11,pentyl    C5H11,t-pentyl 
 C5H12,n-pentane C5H12,i-pentane CH3C(CH3)2CH3   C6H2            C6H5,phenyl    
 C6H5O,phenoxy   C6H6            C6H5OH,phenol   C6H10,cyclo-    C6H12,1-hexene 
 C6H12,cyclo-    C6H13,n-hexyl   C6H14,n-hexane  C7H7,benzyl     C7H8           
 C7H8O,cresol-mx C7H14,1-heptene C7H15,n-heptyl  C7H16,n-heptane C7H16,2-methylh
 C8H8,styrene    C8H10,ethylbenz C8H16,1-octene  C8H17,n-octyl   C8H18,n-octane 
 C8H18,isooctane C9H19,n-nonyl   C10H8,naphthale C10H21,n-decyl  C12H9,o-bipheny
 C12H10,biphenyl *H              HCO             HCCO            HO2            
 *H2             HCHO,formaldehy HCOOH           H2O2            (HCOOH)2       
 *O              *OH             O3              C(gr)           H2O(cr)        
 H2O(L)         

 NOTE. WEIGHT FRACTION OF FUEL IN TOTAL FUELS AND OF OXIDANT IN TOTAL OXIDANTS






 WARNING!!  ASSIGNED pip =   0.00000 IS NOT PERMITTED
 TO BE LESS THAN  Pinj/Pc =  1.00052. POINT OMITTED (ROCKET)





              THEORETICAL ROCKET PERFORMANCE ASSUMING EQUILIBRIUM

            COMPOSITION DURING EXPANSION FROM FINITE AREA COMBUSTOR

 Pin =   143.4 PSIA
 Ac/At = 29.7521      Pinj/Pinf =  1.000261
 CASE =                

             REACTANT                    WT FRACTION      ENERGY      TEMP
                                          (SEE NOTE)     KJ/KG-MOL      K  
 OXIDANT     O2(L)                        1.0000000    -12979.000     90.170
 FUEL        PMMA                         1.0000000   -442140.000    293.150

 O/F=   45.27173  %FUEL=  2.161147  R,EQ.RATIO= 0.049073  PHI,EQ.RATIO= 0.042360

                 INJECTOR  COMB END  THROAT
 Pinj/P            1.0000   1.0005   1.8799
 P, BAR            9.8900   9.8848   5.2608
 T, K              447.06   447.02   376.90
 RHO, KG/CU M    8.5215 0 8.5177 0 5.3767 0
 H, KJ/KG         -492.29  -492.32  -559.63
 U, KJ/KG         -608.34  -608.37  -657.47
 G, KJ/KG        -3291.33 -3291.20 -2919.42
 S, KJ/(KG)(K)     6.2611   6.2611   6.2611

 M, (1/n)          32.027   32.027   32.027
 (dLV/dLP)t      -1.00000 -1.00000 -1.00000
 (dLV/dLT)p        1.0000   1.0000   1.0000
 Cp, KJ/(KG)(K)    0.9711   0.9711   0.9490
 GAMMAs            1.3649   1.3649   1.3766
 SON VEL,M/SEC      398.0    398.0    367.0
 MACH NUMBER        0.000    0.020    1.000

 PERFORMANCE PARAMETERS

 Ae/At                      29.754   1.0000
 CSTAR, M/SEC                501.1    501.1
 CF                         0.0155   0.7324
 Ivac, M/SEC               14913.0    633.6
 Isp, M/SEC                    7.8    367.0


 MOLE FRACTIONS

 *CO2             0.03457  0.03457  0.03457
 H2O              0.02765  0.02765  0.02765
 *O2              0.93778  0.93778  0.93778

  * THERMODYNAMIC PROPERTIES FITTED TO 20000.K

    PRODUCTS WHICH WERE CONSIDERED BUT WHOSE MOLE FRACTIONS
    WERE LESS THAN 5.000000E-06 FOR ALL ASSIGNED CONDITIONS

 *C              *CH             CH2             CH3             CH2OH          
 CH3O            CH4             CH3OH           CH3OOH          *CO            
 COOH            *C2             C2H             C2H2,acetylene  C2H2,vinylidene
 CH2CO,ketene    O(CH)2O         HO(CO)2OH       C2H3,vinyl      CH3CO,acetyl   
 C2H4            C2H4O,ethylen-o CH3CHO,ethanal  CH3COOH         OHCH2COOH      
 C2H5            C2H6            C2H5OH          CH3OCH3         CH3O2CH3       
 C2O             *C3             C3H3,1-propynl  C3H3,2-propynl  C3H4,allene    
 C3H4,propyne    C3H4,cyclo-     C3H5,allyl      C3H6,propylene  C3H6,cyclo-    
 C3H6O,propylox  C3H6O,acetone   C3H6O,propanal  C3H7,n-propyl   C3H7,i-propyl  
 C3H8            C3H8O,1propanol C3H8O,2propanol C3O2            *C4            
 C4H2,butadiyne  C4H4,1,3-cyclo- C4H6,butadiene  C4H6,1butyne    C4H6,2butyne   
 C4H6,cyclo-     C4H8,1-butene   C4H8,cis2-buten C4H8,tr2-butene C4H8,isobutene 
 C4H8,cyclo-     (CH3COOH)2      C4H9,n-butyl    C4H9,i-butyl    C4H9,s-butyl   
 C4H9,t-butyl    C4H10,n-butane  C4H10,isobutane *C5             C5H6,1,3cyclo- 
 C5H8,cyclo-     C5H10,1-pentene C5H10,cyclo-    C5H11,pentyl    C5H11,t-pentyl 
 C5H12,n-pentane C5H12,i-pentane CH3C(CH3)2CH3   C6H2            C6H5,phenyl    
 C6H5O,phenoxy   C6H6            C6H5OH,phenol   C6H10,cyclo-    C6H12,1-hexene 
 C6H12,cyclo-    C6H13,n-hexyl   C6H14,n-hexane  C7H7,benzyl     C7H8           
 C7H8O,cresol-mx C7H14,1-heptene C7H15,n-heptyl  C7H16,n-heptane C7H16,2-methylh
 C8H8,styrene    C8H10,ethylbenz C8H16,1-octene  C8H17,n-octyl   C8H18,n-octane 
 C8H18,isooctane C9H19,n-nonyl   C10H8,naphthale C10H21,n-decyl  C12H9,o-bipheny
 C12H10,biphenyl *H              HCO             HCCO            HO2            
 *H2             HCHO,formaldehy HCOOH           H2O2            (HCOOH)2       
 *O              *OH             O3              C(gr)           H2O(cr)        
 H2O(L)         

 NOTE. WEIGHT FRACTION OF FUEL IN TOTAL FUELS AND OF OXIDANT IN TOTAL OXIDANTS






 WARNING!!  ASSIGNED pip =   0.00000 IS NOT PERMITTED
 TO BE LESS THAN  Pinj/Pc =  1.00052. POINT OMITTED (ROCKET)





              THEORETICAL ROCKET PERFORMANCE ASSUMING EQUILIBRIUM

            COMPOSITION DURING EXPANSION FROM FINITE AREA COMBUSTOR

 Pin =   143.4 PSIA
 Ac/At = 29.7521      Pinj/Pinf =  1.000261
 CASE =                

             REACTANT                    WT FRACTION      ENERGY      TEMP
                                          (SEE NOTE)     KJ/KG-MOL      K  
 OXIDANT     O2(L)                        1.0000000    -12979.000     90.170
 FUEL        PMMA                         1.0000000   -442140.000    293.150

 O/F=   45.27173  %FUEL=  2.161147  R,EQ.RATIO= 0.049073  PHI,EQ.RATIO= 0.042360

                 INJECTOR  COMB END  THROAT
 Pinj/P            1.0000   1.0005   1.8799
 P, BAR            9.8900   9.8848   5.2608
 T, K              447.06   447.02   376.90
 RHO, KG/CU M    8.5215 0 8.5177 0 5.3767 0
 H, KJ/KG         -492.29  -492.32  -559.63
 U, KJ/KG         -608.34  -608.37  -657.47
 G, KJ/KG        -3291.33 -3291.20 -2919.42
 S, KJ/(KG)(K)     6.2611   6.2611   6.2611

 M, (1/n)          32.027   32.027   32.027
 (dLV/dLP)t      -1.00000 -1.00000 -1.00000
 (dLV/dLT)p        1.0000   1.0000   1.0000
 Cp, KJ/(KG)(K)    0.9711   0.9711   0.9490
 GAMMAs            1.3649   1.3649   1.3766
 SON VEL,M/SEC      398.0    398.0    367.0
 MACH NUMBER        0.000    0.020    1.000

 PERFORMANCE PARAMETERS

 Ae/At                      29.754   1.0000
 CSTAR, M/SEC                501.1    501.1
 CF                         0.0155   0.7324
 Ivac, M/SEC               14913.0    633.6
 Isp, M/SEC                    7.8    367.0


 MOLE FRACTIONS

 *CO2             0.03457  0.03457  0.03457
 H2O              0.02765  0.02765  0.02765
 *O2              0.93778  0.93778  0.93778

  * THERMODYNAMIC PROPERTIES FITTED TO 20000.K

    PRODUCTS WHICH WERE CONSIDERED BUT WHOSE MOLE FRACTIONS
    WERE LESS THAN 5.000000E-06 FOR ALL ASSIGNED CONDITIONS

 *C              *CH             CH2             CH3             CH2OH          
 CH3O            CH4             CH3OH           CH3OOH          *CO            
 COOH            *C2             C2H             C2H2,acetylene  C2H2,vinylidene
 CH2CO,ketene    O(CH)2O         HO(CO)2OH       C2H3,vinyl      CH3CO,acetyl   
 C2H4            C2H4O,ethylen-o CH3CHO,ethanal  CH3COOH         OHCH2COOH      
 C2H5            C2H6            C2H5OH          CH3OCH3         CH3O2CH3       
 C2O             *C3             C3H3,1-propynl  C3H3,2-propynl  C3H4,allene    
 C3H4,propyne    C3H4,cyclo-     C3H5,allyl      C3H6,propylene  C3H6,cyclo-    
 C3H6O,propylox  C3H6O,acetone   C3H6O,propanal  C3H7,n-propyl   C3H7,i-propyl  
 C3H8            C3H8O,1propanol C3H8O,2propanol C3O2            *C4            
 C4H2,butadiyne  C4H4,1,3-cyclo- C4H6,butadiene  C4H6,1butyne    C4H6,2butyne   
 C4H6,cyclo-     C4H8,1-butene   C4H8,cis2-buten C4H8,tr2-butene C4H8,isobutene 
 C4H8,cyclo-     (CH3COOH)2      C4H9,n-butyl    C4H9,i-butyl    C4H9,s-butyl   
 C4H9,t-butyl    C4H10,n-butane  C4H10,isobutane *C5             C5H6,1,3cyclo- 
 C5H8,cyclo-     C5H10,1-pentene C5H10,cyclo-    C5H11,pentyl    C5H11,t-pentyl 
 C5H12,n-pentane C5H12,i-pentane CH3C(CH3)2CH3   C6H2            C6H5,phenyl    
 C6H5O,phenoxy   C6H6            C6H5OH,phenol   C6H10,cyclo-    C6H12,1-hexene 
 C6H12,cyclo-    C6H13,n-hexyl   C6H14,n-hexane  C7H7,benzyl     C7H8           
 C7H8O,cresol-mx C7H14,1-heptene C7H15,n-heptyl  C7H16,n-heptane C7H16,2-methylh
 C8H8,styrene    C8H10,ethylbenz C8H16,1-octene  C8H17,n-octyl   C8H18,n-octane 
 C8H18,isooctane C9H19,n-nonyl   C10H8,naphthale C10H21,n-decyl  C12H9,o-bipheny
 C12H10,biphenyl *H              HCO             HCCO            HO2            
 *H2             HCHO,formaldehy HCOOH           H2O2            (HCOOH)2       
 *O              *OH             O3              C(gr)           H2O(cr)        
 H2O(L)         

 NOTE. WEIGHT FRACTION OF FUEL IN TOTAL FUELS AND OF OXIDANT IN TOTAL OXIDANTS






 WARNING!!  ASSIGNED pip =   0.00000 IS NOT PERMITTED
 TO BE LESS THAN  Pinj/Pc =  1.00052. POINT OMITTED (ROCKET)





              THEORETICAL ROCKET PERFORMANCE ASSUMING EQUILIBRIUM

            COMPOSITION DURING EXPANSION FROM FINITE AREA COMBUSTOR

 Pin =   143.4 PSIA
 Ac/At = 29.7521      Pinj/Pinf =  1.000261
 CASE =                

             REACTANT                    WT FRACTION      ENERGY      TEMP
                                          (SEE NOTE)     KJ/KG-MOL      K  
 OXIDANT     O2(L)                        1.0000000    -12979.000     90.170
 FUEL        PMMA                         1.0000000   -442140.000    293.150

 O/F=   45.27173  %FUEL=  2.161147  R,EQ.RATIO= 0.049073  PHI,EQ.RATIO= 0.042360

                 INJECTOR  COMB END  THROAT
 Pinj/P            1.0000   1.0005   1.8799
 P, BAR            9.8900   9.8848   5.2608
 T, K              447.06   447.02   376.90
 RHO, KG/CU M    8.5215 0 8.5177 0 5.3767 0
 H, KJ/KG         -492.29  -492.32  -559.63
 U, KJ/KG         -608.34  -608.37  -657.47
 G, KJ/KG        -3291.33 -3291.20 -2919.42
 S, KJ/(KG)(K)     6.2611   6.2611   6.2611

 M, (1/n)          32.027   32.027   32.027
 (dLV/dLP)t      -1.00000 -1.00000 -1.00000
 (dLV/dLT)p        1.0000   1.0000   1.0000
 Cp, KJ/(KG)(K)    0.9711   0.9711   0.9490
 GAMMAs            1.3649   1.3649   1.3766
 SON VEL,M/SEC      398.0    398.0    367.0
 MACH NUMBER        0.000    0.020    1.000

 PERFORMANCE PARAMETERS

 Ae/At                      29.754   1.0000
 CSTAR, M/SEC                501.1    501.1
 CF                         0.0155   0.7324
 Ivac, M/SEC               14913.0    633.6
 Isp, M/SEC                    7.8    367.0


 MOLE FRACTIONS

 *CO2             0.03457  0.03457  0.03457
 H2O              0.02765  0.02765  0.02765
 *O2              0.93778  0.93778  0.93778

  * THERMODYNAMIC PROPERTIES FITTED TO 20000.K

    PRODUCTS WHICH WERE CONSIDERED BUT WHOSE MOLE FRACTIONS
    WERE LESS THAN 5.000000E-06 FOR ALL ASSIGNED CONDITIONS

 *C              *CH             CH2             CH3             CH2OH          
 CH3O            CH4             CH3OH           CH3OOH          *CO            
 COOH            *C2             C2H             C2H2,acetylene  C2H2,vinylidene
 CH2CO,ketene    O(CH)2O         HO(CO)2OH       C2H3,vinyl      CH3CO,acetyl   
 C2H4            C2H4O,ethylen-o CH3CHO,ethanal  CH3COOH         OHCH2COOH      
 C2H5            C2H6            C2H5OH          CH3OCH3         CH3O2CH3       
 C2O             *C3             C3H3,1-propynl  C3H3,2-propynl  C3H4,allene    
 C3H4,propyne    C3H4,cyclo-     C3H5,allyl      C3H6,propylene  C3H6,cyclo-    
 C3H6O,propylox  C3H6O,acetone   C3H6O,propanal  C3H7,n-propyl   C3H7,i-propyl  
 C3H8            C3H8O,1propanol C3H8O,2propanol C3O2            *C4            
 C4H2,butadiyne  C4H4,1,3-cyclo- C4H6,butadiene  C4H6,1butyne    C4H6,2butyne   
 C4H6,cyclo-     C4H8,1-butene   C4H8,cis2-buten C4H8,tr2-butene C4H8,isobutene 
 C4H8,cyclo-     (CH3COOH)2      C4H9,n-butyl    C4H9,i-butyl    C4H9,s-butyl   
 C4H9,t-butyl    C4H10,n-butane  C4H10,isobutane *C5             C5H6,1,3cyclo- 
 C5H8,cyclo-     C5H10,1-pentene C5H10,cyclo-    C5H11,pentyl    C5H11,t-pentyl 
 C5H12,n-pentane C5H12,i-pentane CH3C(CH3)2CH3   C6H2            C6H5,phenyl    
 C6H5O,phenoxy   C6H6            C6H5OH,phenol   C6H10,cyclo-    C6H12,1-hexene 
 C6H12,cyclo-    C6H13,n-hexyl   C6H14,n-hexane  C7H7,benzyl     C7H8           
 C7H8O,cresol-mx C7H14,1-heptene C7H15,n-heptyl  C7H16,n-heptane C7H16,2-methylh
 C8H8,styrene    C8H10,ethylbenz C8H16,1-octene  C8H17,n-octyl   C8H18,n-octane 
 C8H18,isooctane C9H19,n-nonyl   C10H8,naphthale C10H21,n-decyl  C12H9,o-bipheny
 C12H10,biphenyl *H              HCO             HCCO            HO2            
 *H2             HCHO,formaldehy HCOOH           H2O2            (HCOOH)2       
 *O              *OH             O3              C(gr)           H2O(cr)        
 H2O(L)         

 NOTE. WEIGHT FRACTION OF FUEL IN TOTAL FUELS AND OF OXIDANT IN TOTAL OXIDANTS






 WARNING!!  ASSIGNED pip =   0.00000 IS NOT PERMITTED
 TO BE LESS THAN  Pinj/Pc =  1.00052. POINT OMITTED (ROCKET)





              THEORETICAL ROCKET PERFORMANCE ASSUMING EQUILIBRIUM

            COMPOSITION DURING EXPANSION FROM FINITE AREA COMBUSTOR

 Pin =   143.4 PSIA
 Ac/At = 29.7521      Pinj/Pinf =  1.000261
 CASE =                

             REACTANT                    WT FRACTION      ENERGY      TEMP
                                          (SEE NOTE)     KJ/KG-MOL      K  
 OXIDANT     O2(L)                        1.0000000    -12979.000     90.170
 FUEL        PMMA                         1.0000000   -442140.000    293.150

 O/F=   45.27173  %FUEL=  2.161147  R,EQ.RATIO= 0.049073  PHI,EQ.RATIO= 0.042360

                 INJECTOR  COMB END  THROAT
 Pinj/P            1.0000   1.0005   1.8799
 P, BAR            9.8900   9.8848   5.2608
 T, K              447.06   447.02   376.90
 RHO, KG/CU M    8.5215 0 8.5177 0 5.3767 0
 H, KJ/KG         -492.29  -492.32  -559.63
 U, KJ/KG         -608.34  -608.37  -657.47
 G, KJ/KG        -3291.33 -3291.20 -2919.42
 S, KJ/(KG)(K)     6.2611   6.2611   6.2611

 M, (1/n)          32.027   32.027   32.027
 (dLV/dLP)t      -1.00000 -1.00000 -1.00000
 (dLV/dLT)p        1.0000   1.0000   1.0000
 Cp, KJ/(KG)(K)    0.9711   0.9711   0.9490
 GAMMAs            1.3649   1.3649   1.3766
 SON VEL,M/SEC      398.0    398.0    367.0
 MACH NUMBER        0.000    0.020    1.000

 PERFORMANCE PARAMETERS

 Ae/At                      29.754   1.0000
 CSTAR, M/SEC                501.1    501.1
 CF                         0.0155   0.7324
 Ivac, M/SEC               14913.0    633.6
 Isp, M/SEC                    7.8    367.0


 MOLE FRACTIONS

 *CO2             0.03457  0.03457  0.03457
 H2O              0.02765  0.02765  0.02765
 *O2              0.93778  0.93778  0.93778

  * THERMODYNAMIC PROPERTIES FITTED TO 20000.K

    PRODUCTS WHICH WERE CONSIDERED BUT WHOSE MOLE FRACTIONS
    WERE LESS THAN 5.000000E-06 FOR ALL ASSIGNED CONDITIONS

 *C              *CH             CH2             CH3             CH2OH          
 CH3O            CH4             CH3OH           CH3OOH          *CO            
 COOH            *C2             C2H             C2H2,acetylene  C2H2,vinylidene
 CH2CO,ketene    O(CH)2O         HO(CO)2OH       C2H3,vinyl      CH3CO,acetyl   
 C2H4            C2H4O,ethylen-o CH3CHO,ethanal  CH3COOH         OHCH2COOH      
 C2H5            C2H6            C2H5OH          CH3OCH3         CH3O2CH3       
 C2O             *C3             C3H3,1-propynl  C3H3,2-propynl  C3H4,allene    
 C3H4,propyne    C3H4,cyclo-     C3H5,allyl      C3H6,propylene  C3H6,cyclo-    
 C3H6O,propylox  C3H6O,acetone   C3H6O,propanal  C3H7,n-propyl   C3H7,i-propyl  
 C3H8            C3H8O,1propanol C3H8O,2propanol C3O2            *C4            
 C4H2,butadiyne  C4H4,1,3-cyclo- C4H6,butadiene  C4H6,1butyne    C4H6,2butyne   
 C4H6,cyclo-     C4H8,1-butene   C4H8,cis2-buten C4H8,tr2-butene C4H8,isobutene 
 C4H8,cyclo-     (CH3COOH)2      C4H9,n-butyl    C4H9,i-butyl    C4H9,s-butyl   
 C4H9,t-butyl    C4H10,n-butane  C4H10,isobutane *C5             C5H6,1,3cyclo- 
 C5H8,cyclo-     C5H10,1-pentene C5H10,cyclo-    C5H11,pentyl    C5H11,t-pentyl 
 C5H12,n-pentane C5H12,i-pentane CH3C(CH3)2CH3   C6H2            C6H5,phenyl    
 C6H5O,phenoxy   C6H6            C6H5OH,phenol   C6H10,cyclo-    C6H12,1-hexene 
 C6H12,cyclo-    C6H13,n-hexyl   C6H14,n-hexane  C7H7,benzyl     C7H8           
 C7H8O,cresol-mx C7H14,1-heptene C7H15,n-heptyl  C7H16,n-heptane C7H16,2-methylh
 C8H8,styrene    C8H10,ethylbenz C8H16,1-octene  C8H17,n-octyl   C8H18,n-octane 
 C8H18,isooctane C9H19,n-nonyl   C10H8,naphthale C10H21,n-decyl  C12H9,o-bipheny
 C12H10,biphenyl *H              HCO             HCCO            HO2            
 *H2             HCHO,formaldehy HCOOH           H2O2            (HCOOH)2       
 *O              *OH             O3              C(gr)           H2O(cr)        
 H2O(L)         

 NOTE. WEIGHT FRACTION OF FUEL IN TOTAL FUELS AND OF OXIDANT IN TOTAL OXIDANTS






 WARNING!!  ASSIGNED pip =   0.00000 IS NOT PERMITTED
 TO BE LESS THAN  Pinj/Pc =  1.00052. POINT OMITTED (ROCKET)





              THEORETICAL ROCKET PERFORMANCE ASSUMING EQUILIBRIUM

            COMPOSITION DURING EXPANSION FROM FINITE AREA COMBUSTOR

 Pin =   143.4 PSIA
 Ac/At = 29.7521      Pinj/Pinf =  1.000261
 CASE =                

             REACTANT                    WT FRACTION      ENERGY      TEMP
                                          (SEE NOTE)     KJ/KG-MOL      K  
 OXIDANT     O2(L)                        1.0000000    -12979.000     90.170
 FUEL        PMMA                         1.0000000   -442140.000    293.150

 O/F=   45.27173  %FUEL=  2.161147  R,EQ.RATIO= 0.049073  PHI,EQ.RATIO= 0.042360

                 INJECTOR  COMB END  THROAT
 Pinj/P            1.0000   1.0005   1.8799
 P, BAR            9.8900   9.8848   5.2608
 T, K              447.06   447.02   376.90
 RHO, KG/CU M    8.5215 0 8.5177 0 5.3767 0
 H, KJ/KG         -492.29  -492.32  -559.63
 U, KJ/KG         -608.34  -608.37  -657.47
 G, KJ/KG        -3291.33 -3291.20 -2919.42
 S, KJ/(KG)(K)     6.2611   6.2611   6.2611

 M, (1/n)          32.027   32.027   32.027
 (dLV/dLP)t      -1.00000 -1.00000 -1.00000
 (dLV/dLT)p        1.0000   1.0000   1.0000
 Cp, KJ/(KG)(K)    0.9711   0.9711   0.9490
 GAMMAs            1.3649   1.3649   1.3766
 SON VEL,M/SEC      398.0    398.0    367.0
 MACH NUMBER        0.000    0.020    1.000

 PERFORMANCE PARAMETERS

 Ae/At                      29.754   1.0000
 CSTAR, M/SEC                501.1    501.1
 CF                         0.0155   0.7324
 Ivac, M/SEC               14913.0    633.6
 Isp, M/SEC                    7.8    367.0


 MOLE FRACTIONS

 *CO2             0.03457  0.03457  0.03457
 H2O              0.02765  0.02765  0.02765
 *O2              0.93778  0.93778  0.93778

  * THERMODYNAMIC PROPERTIES FITTED TO 20000.K

    PRODUCTS WHICH WERE CONSIDERED BUT WHOSE MOLE FRACTIONS
    WERE LESS THAN 5.000000E-06 FOR ALL ASSIGNED CONDITIONS

 *C              *CH             CH2             CH3             CH2OH          
 CH3O            CH4             CH3OH           CH3OOH          *CO            
 COOH            *C2             C2H             C2H2,acetylene  C2H2,vinylidene
 CH2CO,ketene    O(CH)2O         HO(CO)2OH       C2H3,vinyl      CH3CO,acetyl   
 C2H4            C2H4O,ethylen-o CH3CHO,ethanal  CH3COOH         OHCH2COOH      
 C2H5            C2H6            C2H5OH          CH3OCH3         CH3O2CH3       
 C2O             *C3             C3H3,1-propynl  C3H3,2-propynl  C3H4,allene    
 C3H4,propyne    C3H4,cyclo-     C3H5,allyl      C3H6,propylene  C3H6,cyclo-    
 C3H6O,propylox  C3H6O,acetone   C3H6O,propanal  C3H7,n-propyl   C3H7,i-propyl  
 C3H8            C3H8O,1propanol C3H8O,2propanol C3O2            *C4            
 C4H2,butadiyne  C4H4,1,3-cyclo- C4H6,butadiene  C4H6,1butyne    C4H6,2butyne   
 C4H6,cyclo-     C4H8,1-butene   C4H8,cis2-buten C4H8,tr2-butene C4H8,isobutene 
 C4H8,cyclo-     (CH3COOH)2      C4H9,n-butyl    C4H9,i-butyl    C4H9,s-butyl   
 C4H9,t-butyl    C4H10,n-butane  C4H10,isobutane *C5             C5H6,1,3cyclo- 
 C5H8,cyclo-     C5H10,1-pentene C5H10,cyclo-    C5H11,pentyl    C5H11,t-pentyl 
 C5H12,n-pentane C5H12,i-pentane CH3C(CH3)2CH3   C6H2            C6H5,phenyl    
 C6H5O,phenoxy   C6H6            C6H5OH,phenol   C6H10,cyclo-    C6H12,1-hexene 
 C6H12,cyclo-    C6H13,n-hexyl   C6H14,n-hexane  C7H7,benzyl     C7H8           
 C7H8O,cresol-mx C7H14,1-heptene C7H15,n-heptyl  C7H16,n-heptane C7H16,2-methylh
 C8H8,styrene    C8H10,ethylbenz C8H16,1-octene  C8H17,n-octyl   C8H18,n-octane 
 C8H18,isooctane C9H19,n-nonyl   C10H8,naphthale C10H21,n-decyl  C12H9,o-bipheny
 C12H10,biphenyl *H              HCO             HCCO            HO2            
 *H2             HCHO,formaldehy HCOOH           H2O2            (HCOOH)2       
 *O              *OH             O3              C(gr)           H2O(cr)        
 H2O(L)         

 NOTE. WEIGHT FRACTION OF FUEL IN TOTAL FUELS AND OF OXIDANT IN TOTAL OXIDANTS






 WARNING!!  ASSIGNED pip =   0.00000 IS NOT PERMITTED
 TO BE LESS THAN  Pinj/Pc =  1.00052. POINT OMITTED (ROCKET)





              THEORETICAL ROCKET PERFORMANCE ASSUMING EQUILIBRIUM

            COMPOSITION DURING EXPANSION FROM FINITE AREA COMBUSTOR

 Pin =   143.4 PSIA
 Ac/At = 29.7521      Pinj/Pinf =  1.000261
 CASE =                

             REACTANT                    WT FRACTION      ENERGY      TEMP
                                          (SEE NOTE)     KJ/KG-MOL      K  
 OXIDANT     O2(L)                        1.0000000    -12979.000     90.170
 FUEL        PMMA                         1.0000000   -442140.000    293.150

 O/F=   45.27173  %FUEL=  2.161147  R,EQ.RATIO= 0.049073  PHI,EQ.RATIO= 0.042360

                 INJECTOR  COMB END  THROAT
 Pinj/P            1.0000   1.0005   1.8799
 P, BAR            9.8900   9.8848   5.2608
 T, K              447.06   447.02   376.90
 RHO, KG/CU M    8.5215 0 8.5177 0 5.3767 0
 H, KJ/KG         -492.29  -492.32  -559.63
 U, KJ/KG         -608.34  -608.37  -657.47
 G, KJ/KG        -3291.33 -3291.20 -2919.42
 S, KJ/(KG)(K)     6.2611   6.2611   6.2611

 M, (1/n)          32.027   32.027   32.027
 (dLV/dLP)t      -1.00000 -1.00000 -1.00000
 (dLV/dLT)p        1.0000   1.0000   1.0000
 Cp, KJ/(KG)(K)    0.9711   0.9711   0.9490
 GAMMAs            1.3649   1.3649   1.3766
 SON VEL,M/SEC      398.0    398.0    367.0
 MACH NUMBER        0.000    0.020    1.000

 PERFORMANCE PARAMETERS

 Ae/At                      29.754   1.0000
 CSTAR, M/SEC                501.1    501.1
 CF                         0.0155   0.7324
 Ivac, M/SEC               14913.0    633.6
 Isp, M/SEC                    7.8    367.0


 MOLE FRACTIONS

 *CO2             0.03457  0.03457  0.03457
 H2O              0.02765  0.02765  0.02765
 *O2              0.93778  0.93778  0.93778

  * THERMODYNAMIC PROPERTIES FITTED TO 20000.K

    PRODUCTS WHICH WERE CONSIDERED BUT WHOSE MOLE FRACTIONS
    WERE LESS THAN 5.000000E-06 FOR ALL ASSIGNED CONDITIONS

 *C              *CH             CH2             CH3             CH2OH          
 CH3O            CH4             CH3OH           CH3OOH          *CO            
 COOH            *C2             C2H             C2H2,acetylene  C2H2,vinylidene
 CH2CO,ketene    O(CH)2O         HO(CO)2OH       C2H3,vinyl      CH3CO,acetyl   
 C2H4            C2H4O,ethylen-o CH3CHO,ethanal  CH3COOH         OHCH2COOH      
 C2H5            C2H6            C2H5OH          CH3OCH3         CH3O2CH3       
 C2O             *C3             C3H3,1-propynl  C3H3,2-propynl  C3H4,allene    
 C3H4,propyne    C3H4,cyclo-     C3H5,allyl      C3H6,propylene  C3H6,cyclo-    
 C3H6O,propylox  C3H6O,acetone   C3H6O,propanal  C3H7,n-propyl   C3H7,i-propyl  
 C3H8            C3H8O,1propanol C3H8O,2propanol C3O2            *C4            
 C4H2,butadiyne  C4H4,1,3-cyclo- C4H6,butadiene  C4H6,1butyne    C4H6,2butyne   
 C4H6,cyclo-     C4H8,1-butene   C4H8,cis2-buten C4H8,tr2-butene C4H8,isobutene 
 C4H8,cyclo-     (CH3COOH)2      C4H9,n-butyl    C4H9,i-butyl    C4H9,s-butyl   
 C4H9,t-butyl    C4H10,n-butane  C4H10,isobutane *C5             C5H6,1,3cyclo- 
 C5H8,cyclo-     C5H10,1-pentene C5H10,cyclo-    C5H11,pentyl    C5H11,t-pentyl 
 C5H12,n-pentane C5H12,i-pentane CH3C(CH3)2CH3   C6H2            C6H5,phenyl    
 C6H5O,phenoxy   C6H6            C6H5OH,phenol   C6H10,cyclo-    C6H12,1-hexene 
 C6H12,cyclo-    C6H13,n-hexyl   C6H14,n-hexane  C7H7,benzyl     C7H8           
 C7H8O,cresol-mx C7H14,1-heptene C7H15,n-heptyl  C7H16,n-heptane C7H16,2-methylh
 C8H8,styrene    C8H10,ethylbenz C8H16,1-octene  C8H17,n-octyl   C8H18,n-octane 
 C8H18,isooctane C9H19,n-nonyl   C10H8,naphthale C10H21,n-decyl  C12H9,o-bipheny
 C12H10,biphenyl *H              HCO             HCCO            HO2            
 *H2             HCHO,formaldehy HCOOH           H2O2            (HCOOH)2       
 *O              *OH             O3              C(gr)           H2O(cr)        
 H2O(L)         

 NOTE. WEIGHT FRACTION OF FUEL IN TOTAL FUELS AND OF OXIDANT IN TOTAL OXIDANTS






 WARNING!!  ASSIGNED pip =   0.00000 IS NOT PERMITTED
 TO BE LESS THAN  Pinj/Pc =  1.00052. POINT OMITTED (ROCKET)





              THEORETICAL ROCKET PERFORMANCE ASSUMING EQUILIBRIUM

            COMPOSITION DURING EXPANSION FROM FINITE AREA COMBUSTOR

 Pin =   143.4 PSIA
 Ac/At = 29.7521      Pinj/Pinf =  1.000261
 CASE =                

             REACTANT                    WT FRACTION      ENERGY      TEMP
                                          (SEE NOTE)     KJ/KG-MOL      K  
 OXIDANT     O2(L)                        1.0000000    -12979.000     90.170
 FUEL        PMMA                         1.0000000   -442140.000    293.150

 O/F=   45.27173  %FUEL=  2.161147  R,EQ.RATIO= 0.049073  PHI,EQ.RATIO= 0.042360

                 INJECTOR  COMB END  THROAT
 Pinj/P            1.0000   1.0005   1.8799
 P, BAR            9.8900   9.8848   5.2608
 T, K              447.06   447.02   376.90
 RHO, KG/CU M    8.5215 0 8.5177 0 5.3767 0
 H, KJ/KG         -492.29  -492.32  -559.63
 U, KJ/KG         -608.34  -608.37  -657.47
 G, KJ/KG        -3291.33 -3291.20 -2919.42
 S, KJ/(KG)(K)     6.2611   6.2611   6.2611

 M, (1/n)          32.027   32.027   32.027
 (dLV/dLP)t      -1.00000 -1.00000 -1.00000
 (dLV/dLT)p        1.0000   1.0000   1.0000
 Cp, KJ/(KG)(K)    0.9711   0.9711   0.9490
 GAMMAs            1.3649   1.3649   1.3766
 SON VEL,M/SEC      398.0    398.0    367.0
 MACH NUMBER        0.000    0.020    1.000

 PERFORMANCE PARAMETERS

 Ae/At                      29.754   1.0000
 CSTAR, M/SEC                501.1    501.1
 CF                         0.0155   0.7324
 Ivac, M/SEC               14913.0    633.6
 Isp, M/SEC                    7.8    367.0


 MOLE FRACTIONS

 *CO2             0.03457  0.03457  0.03457
 H2O              0.02765  0.02765  0.02765
 *O2              0.93778  0.93778  0.93778

  * THERMODYNAMIC PROPERTIES FITTED TO 20000.K

    PRODUCTS WHICH WERE CONSIDERED BUT WHOSE MOLE FRACTIONS
    WERE LESS THAN 5.000000E-06 FOR ALL ASSIGNED CONDITIONS

 *C              *CH             CH2             CH3             CH2OH          
 CH3O            CH4             CH3OH           CH3OOH          *CO            
 COOH            *C2             C2H             C2H2,acetylene  C2H2,vinylidene
 CH2CO,ketene    O(CH)2O         HO(CO)2OH       C2H3,vinyl      CH3CO,acetyl   
 C2H4            C2H4O,ethylen-o CH3CHO,ethanal  CH3COOH         OHCH2COOH      
 C2H5            C2H6            C2H5OH          CH3OCH3         CH3O2CH3       
 C2O             *C3             C3H3,1-propynl  C3H3,2-propynl  C3H4,allene    
 C3H4,propyne    C3H4,cyclo-     C3H5,allyl      C3H6,propylene  C3H6,cyclo-    
 C3H6O,propylox  C3H6O,acetone   C3H6O,propanal  C3H7,n-propyl   C3H7,i-propyl  
 C3H8            C3H8O,1propanol C3H8O,2propanol C3O2            *C4            
 C4H2,butadiyne  C4H4,1,3-cyclo- C4H6,butadiene  C4H6,1butyne    C4H6,2butyne   
 C4H6,cyclo-     C4H8,1-butene   C4H8,cis2-buten C4H8,tr2-butene C4H8,isobutene 
 C4H8,cyclo-     (CH3COOH)2      C4H9,n-butyl    C4H9,i-butyl    C4H9,s-butyl   
 C4H9,t-butyl    C4H10,n-butane  C4H10,isobutane *C5             C5H6,1,3cyclo- 
 C5H8,cyclo-     C5H10,1-pentene C5H10,cyclo-    C5H11,pentyl    C5H11,t-pentyl 
 C5H12,n-pentane C5H12,i-pentane CH3C(CH3)2CH3   C6H2            C6H5,phenyl    
 C6H5O,phenoxy   C6H6            C6H5OH,phenol   C6H10,cyclo-    C6H12,1-hexene 
 C6H12,cyclo-    C6H13,n-hexyl   C6H14,n-hexane  C7H7,benzyl     C7H8           
 C7H8O,cresol-mx C7H14,1-heptene C7H15,n-heptyl  C7H16,n-heptane C7H16,2-methylh
 C8H8,styrene    C8H10,ethylbenz C8H16,1-octene  C8H17,n-octyl   C8H18,n-octane 
 C8H18,isooctane C9H19,n-nonyl   C10H8,naphthale C10H21,n-decyl  C12H9,o-bipheny
 C12H10,biphenyl *H              HCO             HCCO            HO2            
 *H2             HCHO,formaldehy HCOOH           H2O2            (HCOOH)2       
 *O              *OH             O3              C(gr)           H2O(cr)        
 H2O(L)         

 NOTE. WEIGHT FRACTION OF FUEL IN TOTAL FUELS AND OF OXIDANT IN TOTAL OXIDANTS






 WARNING!!  ASSIGNED pip =   0.00000 IS NOT PERMITTED
 TO BE LESS THAN  Pinj/Pc =  1.00052. POINT OMITTED (ROCKET)





              THEORETICAL ROCKET PERFORMANCE ASSUMING EQUILIBRIUM

            COMPOSITION DURING EXPANSION FROM FINITE AREA COMBUSTOR

 Pin =   143.4 PSIA
 Ac/At = 29.7521      Pinj/Pinf =  1.000261
 CASE =                

             REACTANT                    WT FRACTION      ENERGY      TEMP
                                          (SEE NOTE)     KJ/KG-MOL      K  
 OXIDANT     O2(L)                        1.0000000    -12979.000     90.170
 FUEL        PMMA                         1.0000000   -442140.000    293.150

 O/F=   45.27173  %FUEL=  2.161147  R,EQ.RATIO= 0.049073  PHI,EQ.RATIO= 0.042360

                 INJECTOR  COMB END  THROAT
 Pinj/P            1.0000   1.0005   1.8799
 P, BAR            9.8900   9.8848   5.2608
 T, K              447.06   447.02   376.90
 RHO, KG/CU M    8.5215 0 8.5177 0 5.3767 0
 H, KJ/KG         -492.29  -492.32  -559.63
 U, KJ/KG         -608.34  -608.37  -657.47
 G, KJ/KG        -3291.33 -3291.20 -2919.42
 S, KJ/(KG)(K)     6.2611   6.2611   6.2611

 M, (1/n)          32.027   32.027   32.027
 (dLV/dLP)t      -1.00000 -1.00000 -1.00000
 (dLV/dLT)p        1.0000   1.0000   1.0000
 Cp, KJ/(KG)(K)    0.9711   0.9711   0.9490
 GAMMAs            1.3649   1.3649   1.3766
 SON VEL,M/SEC      398.0    398.0    367.0
 MACH NUMBER        0.000    0.020    1.000

 PERFORMANCE PARAMETERS

 Ae/At                      29.754   1.0000
 CSTAR, M/SEC                501.1    501.1
 CF                         0.0155   0.7324
 Ivac, M/SEC               14913.0    633.6
 Isp, M/SEC                    7.8    367.0


 MOLE FRACTIONS

 *CO2             0.03457  0.03457  0.03457
 H2O              0.02765  0.02765  0.02765
 *O2              0.93778  0.93778  0.93778

  * THERMODYNAMIC PROPERTIES FITTED TO 20000.K

    PRODUCTS WHICH WERE CONSIDERED BUT WHOSE MOLE FRACTIONS
    WERE LESS THAN 5.000000E-06 FOR ALL ASSIGNED CONDITIONS

 *C              *CH             CH2             CH3             CH2OH          
 CH3O            CH4             CH3OH           CH3OOH          *CO            
 COOH            *C2             C2H             C2H2,acetylene  C2H2,vinylidene
 CH2CO,ketene    O(CH)2O         HO(CO)2OH       C2H3,vinyl      CH3CO,acetyl   
 C2H4            C2H4O,ethylen-o CH3CHO,ethanal  CH3COOH         OHCH2COOH      
 C2H5            C2H6            C2H5OH          CH3OCH3         CH3O2CH3       
 C2O             *C3             C3H3,1-propynl  C3H3,2-propynl  C3H4,allene    
 C3H4,propyne    C3H4,cyclo-     C3H5,allyl      C3H6,propylene  C3H6,cyclo-    
 C3H6O,propylox  C3H6O,acetone   C3H6O,propanal  C3H7,n-propyl   C3H7,i-propyl  
 C3H8            C3H8O,1propanol C3H8O,2propanol C3O2            *C4            
 C4H2,butadiyne  C4H4,1,3-cyclo- C4H6,butadiene  C4H6,1butyne    C4H6,2butyne   
 C4H6,cyclo-     C4H8,1-butene   C4H8,cis2-buten C4H8,tr2-butene C4H8,isobutene 
 C4H8,cyclo-     (CH3COOH)2      C4H9,n-butyl    C4H9,i-butyl    C4H9,s-butyl   
 C4H9,t-butyl    C4H10,n-butane  C4H10,isobutane *C5             C5H6,1,3cyclo- 
 C5H8,cyclo-     C5H10,1-pentene C5H10,cyclo-    C5H11,pentyl    C5H11,t-pentyl 
 C5H12,n-pentane C5H12,i-pentane CH3C(CH3)2CH3   C6H2            C6H5,phenyl    
 C6H5O,phenoxy   C6H6            C6H5OH,phenol   C6H10,cyclo-    C6H12,1-hexene 
 C6H12,cyclo-    C6H13,n-hexyl   C6H14,n-hexane  C7H7,benzyl     C7H8           
 C7H8O,cresol-mx C7H14,1-heptene C7H15,n-heptyl  C7H16,n-heptane C7H16,2-methylh
 C8H8,styrene    C8H10,ethylbenz C8H16,1-octene  C8H17,n-octyl   C8H18,n-octane 
 C8H18,isooctane C9H19,n-nonyl   C10H8,naphthale C10H21,n-decyl  C12H9,o-bipheny
 C12H10,biphenyl *H              HCO             HCCO            HO2            
 *H2             HCHO,formaldehy HCOOH           H2O2            (HCOOH)2       
 *O              *OH             O3              C(gr)           H2O(cr)        
 H2O(L)         

 NOTE. WEIGHT FRACTION OF FUEL IN TOTAL FUELS AND OF OXIDANT IN TOTAL OXIDANTS






 WARNING!!  ASSIGNED pip =   0.00000 IS NOT PERMITTED
 TO BE LESS THAN  Pinj/Pc =  1.00052. POINT OMITTED (ROCKET)





              THEORETICAL ROCKET PERFORMANCE ASSUMING EQUILIBRIUM

            COMPOSITION DURING EXPANSION FROM FINITE AREA COMBUSTOR

 Pin =   143.4 PSIA
 Ac/At = 29.7521      Pinj/Pinf =  1.000261
 CASE =                

             REACTANT                    WT FRACTION      ENERGY      TEMP
                                          (SEE NOTE)     KJ/KG-MOL      K  
 OXIDANT     O2(L)                        1.0000000    -12979.000     90.170
 FUEL        PMMA                         1.0000000   -442140.000    293.150

 O/F=   45.27173  %FUEL=  2.161147  R,EQ.RATIO= 0.049073  PHI,EQ.RATIO= 0.042360

                 INJECTOR  COMB END  THROAT
 Pinj/P            1.0000   1.0005   1.8799
 P, BAR            9.8900   9.8848   5.2608
 T, K              447.06   447.02   376.90
 RHO, KG/CU M    8.5215 0 8.5177 0 5.3767 0
 H, KJ/KG         -492.29  -492.32  -559.63
 U, KJ/KG         -608.34  -608.37  -657.47
 G, KJ/KG        -3291.33 -3291.20 -2919.42
 S, KJ/(KG)(K)     6.2611   6.2611   6.2611

 M, (1/n)          32.027   32.027   32.027
 (dLV/dLP)t      -1.00000 -1.00000 -1.00000
 (dLV/dLT)p        1.0000   1.0000   1.0000
 Cp, KJ/(KG)(K)    0.9711   0.9711   0.9490
 GAMMAs            1.3649   1.3649   1.3766
 SON VEL,M/SEC      398.0    398.0    367.0
 MACH NUMBER        0.000    0.020    1.000

 PERFORMANCE PARAMETERS

 Ae/At                      29.754   1.0000
 CSTAR, M/SEC                501.1    501.1
 CF                         0.0155   0.7324
 Ivac, M/SEC               14913.0    633.6
 Isp, M/SEC                    7.8    367.0


 MOLE FRACTIONS

 *CO2             0.03457  0.03457  0.03457
 H2O              0.02765  0.02765  0.02765
 *O2              0.93778  0.93778  0.93778

  * THERMODYNAMIC PROPERTIES FITTED TO 20000.K

    PRODUCTS WHICH WERE CONSIDERED BUT WHOSE MOLE FRACTIONS
    WERE LESS THAN 5.000000E-06 FOR ALL ASSIGNED CONDITIONS

 *C              *CH             CH2             CH3             CH2OH          
 CH3O            CH4             CH3OH           CH3OOH          *CO            
 COOH            *C2             C2H             C2H2,acetylene  C2H2,vinylidene
 CH2CO,ketene    O(CH)2O         HO(CO)2OH       C2H3,vinyl      CH3CO,acetyl   
 C2H4            C2H4O,ethylen-o CH3CHO,ethanal  CH3COOH         OHCH2COOH      
 C2H5            C2H6            C2H5OH          CH3OCH3         CH3O2CH3       
 C2O             *C3             C3H3,1-propynl  C3H3,2-propynl  C3H4,allene    
 C3H4,propyne    C3H4,cyclo-     C3H5,allyl      C3H6,propylene  C3H6,cyclo-    
 C3H6O,propylox  C3H6O,acetone   C3H6O,propanal  C3H7,n-propyl   C3H7,i-propyl  
 C3H8            C3H8O,1propanol C3H8O,2propanol C3O2            *C4            
 C4H2,butadiyne  C4H4,1,3-cyclo- C4H6,butadiene  C4H6,1butyne    C4H6,2butyne   
 C4H6,cyclo-     C4H8,1-butene   C4H8,cis2-buten C4H8,tr2-butene C4H8,isobutene 
 C4H8,cyclo-     (CH3COOH)2      C4H9,n-butyl    C4H9,i-butyl    C4H9,s-butyl   
 C4H9,t-butyl    C4H10,n-butane  C4H10,isobutane *C5             C5H6,1,3cyclo- 
 C5H8,cyclo-     C5H10,1-pentene C5H10,cyclo-    C5H11,pentyl    C5H11,t-pentyl 
 C5H12,n-pentane C5H12,i-pentane CH3C(CH3)2CH3   C6H2            C6H5,phenyl    
 C6H5O,phenoxy   C6H6            C6H5OH,phenol   C6H10,cyclo-    C6H12,1-hexene 
 C6H12,cyclo-    C6H13,n-hexyl   C6H14,n-hexane  C7H7,benzyl     C7H8           
 C7H8O,cresol-mx C7H14,1-heptene C7H15,n-heptyl  C7H16,n-heptane C7H16,2-methylh
 C8H8,styrene    C8H10,ethylbenz C8H16,1-octene  C8H17,n-octyl   C8H18,n-octane 
 C8H18,isooctane C9H19,n-nonyl   C10H8,naphthale C10H21,n-decyl  C12H9,o-bipheny
 C12H10,biphenyl *H              HCO             HCCO            HO2            
 *H2             HCHO,formaldehy HCOOH           H2O2            (HCOOH)2       
 *O              *OH             O3              C(gr)           H2O(cr)        
 H2O(L)         

 NOTE. WEIGHT FRACTION OF FUEL IN TOTAL FUELS AND OF OXIDANT IN TOTAL OXIDANTS






 WARNING!!  ASSIGNED pip =   0.00000 IS NOT PERMITTED
 TO BE LESS THAN  Pinj/Pc =  1.00052. POINT OMITTED (ROCKET)





              THEORETICAL ROCKET PERFORMANCE ASSUMING EQUILIBRIUM

            COMPOSITION DURING EXPANSION FROM FINITE AREA COMBUSTOR

 Pin =   143.4 PSIA
 Ac/At = 29.7521      Pinj/Pinf =  1.000261
 CASE =                

             REACTANT                    WT FRACTION      ENERGY      TEMP
                                          (SEE NOTE)     KJ/KG-MOL      K  
 OXIDANT     O2(L)                        1.0000000    -12979.000     90.170
 FUEL        PMMA                         1.0000000   -442140.000    293.150

 O/F=   45.27173  %FUEL=  2.161147  R,EQ.RATIO= 0.049073  PHI,EQ.RATIO= 0.042360

                 INJECTOR  COMB END  THROAT
 Pinj/P            1.0000   1.0005   1.8799
 P, BAR            9.8900   9.8848   5.2608
 T, K              447.06   447.02   376.90
 RHO, KG/CU M    8.5215 0 8.5177 0 5.3767 0
 H, KJ/KG         -492.29  -492.32  -559.63
 U, KJ/KG         -608.34  -608.37  -657.47
 G, KJ/KG        -3291.33 -3291.20 -2919.42
 S, KJ/(KG)(K)     6.2611   6.2611   6.2611

 M, (1/n)          32.027   32.027   32.027
 (dLV/dLP)t      -1.00000 -1.00000 -1.00000
 (dLV/dLT)p        1.0000   1.0000   1.0000
 Cp, KJ/(KG)(K)    0.9711   0.9711   0.9490
 GAMMAs            1.3649   1.3649   1.3766
 SON VEL,M/SEC      398.0    398.0    367.0
 MACH NUMBER        0.000    0.020    1.000

 PERFORMANCE PARAMETERS

 Ae/At                      29.754   1.0000
 CSTAR, M/SEC                501.1    501.1
 CF                         0.0155   0.7324
 Ivac, M/SEC               14913.0    633.6
 Isp, M/SEC                    7.8    367.0


 MOLE FRACTIONS

 *CO2             0.03457  0.03457  0.03457
 H2O              0.02765  0.02765  0.02765
 *O2              0.93778  0.93778  0.93778

  * THERMODYNAMIC PROPERTIES FITTED TO 20000.K

    PRODUCTS WHICH WERE CONSIDERED BUT WHOSE MOLE FRACTIONS
    WERE LESS THAN 5.000000E-06 FOR ALL ASSIGNED CONDITIONS

 *C              *CH             CH2             CH3             CH2OH          
 CH3O            CH4             CH3OH           CH3OOH          *CO            
 COOH            *C2             C2H             C2H2,acetylene  C2H2,vinylidene
 CH2CO,ketene    O(CH)2O         HO(CO)2OH       C2H3,vinyl      CH3CO,acetyl   
 C2H4            C2H4O,ethylen-o CH3CHO,ethanal  CH3COOH         OHCH2COOH      
 C2H5            C2H6            C2H5OH          CH3OCH3         CH3O2CH3       
 C2O             *C3             C3H3,1-propynl  C3H3,2-propynl  C3H4,allene    
 C3H4,propyne    C3H4,cyclo-     C3H5,allyl      C3H6,propylene  C3H6,cyclo-    
 C3H6O,propylox  C3H6O,acetone   C3H6O,propanal  C3H7,n-propyl   C3H7,i-propyl  
 C3H8            C3H8O,1propanol C3H8O,2propanol C3O2            *C4            
 C4H2,butadiyne  C4H4,1,3-cyclo- C4H6,butadiene  C4H6,1butyne    C4H6,2butyne   
 C4H6,cyclo-     C4H8,1-butene   C4H8,cis2-buten C4H8,tr2-butene C4H8,isobutene 
 C4H8,cyclo-     (CH3COOH)2      C4H9,n-butyl    C4H9,i-butyl    C4H9,s-butyl   
 C4H9,t-butyl    C4H10,n-butane  C4H10,isobutane *C5             C5H6,1,3cyclo- 
 C5H8,cyclo-     C5H10,1-pentene C5H10,cyclo-    C5H11,pentyl    C5H11,t-pentyl 
 C5H12,n-pentane C5H12,i-pentane CH3C(CH3)2CH3   C6H2            C6H5,phenyl    
 C6H5O,phenoxy   C6H6            C6H5OH,phenol   C6H10,cyclo-    C6H12,1-hexene 
 C6H12,cyclo-    C6H13,n-hexyl   C6H14,n-hexane  C7H7,benzyl     C7H8           
 C7H8O,cresol-mx C7H14,1-heptene C7H15,n-heptyl  C7H16,n-heptane C7H16,2-methylh
 C8H8,styrene    C8H10,ethylbenz C8H16,1-octene  C8H17,n-octyl   C8H18,n-octane 
 C8H18,isooctane C9H19,n-nonyl   C10H8,naphthale C10H21,n-decyl  C12H9,o-bipheny
 C12H10,biphenyl *H              HCO             HCCO            HO2            
 *H2             HCHO,formaldehy HCOOH           H2O2            (HCOOH)2       
 *O              *OH             O3              C(gr)           H2O(cr)        
 H2O(L)         

 NOTE. WEIGHT FRACTION OF FUEL IN TOTAL FUELS AND OF OXIDANT IN TOTAL OXIDANTS






 WARNING!!  ASSIGNED pip =   0.00000 IS NOT PERMITTED
 TO BE LESS THAN  Pinj/Pc =  1.00052. POINT OMITTED (ROCKET)





              THEORETICAL ROCKET PERFORMANCE ASSUMING EQUILIBRIUM

            COMPOSITION DURING EXPANSION FROM FINITE AREA COMBUSTOR

 Pin =   143.4 PSIA
 Ac/At = 29.7521      Pinj/Pinf =  1.000261
 CASE =                

             REACTANT                    WT FRACTION      ENERGY      TEMP
                                          (SEE NOTE)     KJ/KG-MOL      K  
 OXIDANT     O2(L)                        1.0000000    -12979.000     90.170
 FUEL        PMMA                         1.0000000   -442140.000    293.150

 O/F=   45.27173  %FUEL=  2.161147  R,EQ.RATIO= 0.049073  PHI,EQ.RATIO= 0.042360

                 INJECTOR  COMB END  THROAT
 Pinj/P            1.0000   1.0005   1.8799
 P, BAR            9.8900   9.8848   5.2608
 T, K              447.06   447.02   376.90
 RHO, KG/CU M    8.5215 0 8.5177 0 5.3767 0
 H, KJ/KG         -492.29  -492.32  -559.63
 U, KJ/KG         -608.34  -608.37  -657.47
 G, KJ/KG        -3291.33 -3291.20 -2919.42
 S, KJ/(KG)(K)     6.2611   6.2611   6.2611

 M, (1/n)          32.027   32.027   32.027
 (dLV/dLP)t      -1.00000 -1.00000 -1.00000
 (dLV/dLT)p        1.0000   1.0000   1.0000
 Cp, KJ/(KG)(K)    0.9711   0.9711   0.9490
 GAMMAs            1.3649   1.3649   1.3766
 SON VEL,M/SEC      398.0    398.0    367.0
 MACH NUMBER        0.000    0.020    1.000

 PERFORMANCE PARAMETERS

 Ae/At                      29.754   1.0000
 CSTAR, M/SEC                501.1    501.1
 CF                         0.0155   0.7324
 Ivac, M/SEC               14913.0    633.6
 Isp, M/SEC                    7.8    367.0


 MOLE FRACTIONS

 *CO2             0.03457  0.03457  0.03457
 H2O              0.02765  0.02765  0.02765
 *O2              0.93778  0.93778  0.93778

  * THERMODYNAMIC PROPERTIES FITTED TO 20000.K

    PRODUCTS WHICH WERE CONSIDERED BUT WHOSE MOLE FRACTIONS
    WERE LESS THAN 5.000000E-06 FOR ALL ASSIGNED CONDITIONS

 *C              *CH             CH2             CH3             CH2OH          
 CH3O            CH4             CH3OH           CH3OOH          *CO            
 COOH            *C2             C2H             C2H2,acetylene  C2H2,vinylidene
 CH2CO,ketene    O(CH)2O         HO(CO)2OH       C2H3,vinyl      CH3CO,acetyl   
 C2H4            C2H4O,ethylen-o CH3CHO,ethanal  CH3COOH         OHCH2COOH      
 C2H5            C2H6            C2H5OH          CH3OCH3         CH3O2CH3       
 C2O             *C3             C3H3,1-propynl  C3H3,2-propynl  C3H4,allene    
 C3H4,propyne    C3H4,cyclo-     C3H5,allyl      C3H6,propylene  C3H6,cyclo-    
 C3H6O,propylox  C3H6O,acetone   C3H6O,propanal  C3H7,n-propyl   C3H7,i-propyl  
 C3H8            C3H8O,1propanol C3H8O,2propanol C3O2            *C4            
 C4H2,butadiyne  C4H4,1,3-cyclo- C4H6,butadiene  C4H6,1butyne    C4H6,2butyne   
 C4H6,cyclo-     C4H8,1-butene   C4H8,cis2-buten C4H8,tr2-butene C4H8,isobutene 
 C4H8,cyclo-     (CH3COOH)2      C4H9,n-butyl    C4H9,i-butyl    C4H9,s-butyl   
 C4H9,t-butyl    C4H10,n-butane  C4H10,isobutane *C5             C5H6,1,3cyclo- 
 C5H8,cyclo-     C5H10,1-pentene C5H10,cyclo-    C5H11,pentyl    C5H11,t-pentyl 
 C5H12,n-pentane C5H12,i-pentane CH3C(CH3)2CH3   C6H2            C6H5,phenyl    
 C6H5O,phenoxy   C6H6            C6H5OH,phenol   C6H10,cyclo-    C6H12,1-hexene 
 C6H12,cyclo-    C6H13,n-hexyl   C6H14,n-hexane  C7H7,benzyl     C7H8           
 C7H8O,cresol-mx C7H14,1-heptene C7H15,n-heptyl  C7H16,n-heptane C7H16,2-methylh
 C8H8,styrene    C8H10,ethylbenz C8H16,1-octene  C8H17,n-octyl   C8H18,n-octane 
 C8H18,isooctane C9H19,n-nonyl   C10H8,naphthale C10H21,n-decyl  C12H9,o-bipheny
 C12H10,biphenyl *H              HCO             HCCO            HO2            
 *H2             HCHO,formaldehy HCOOH           H2O2            (HCOOH)2       
 *O              *OH             O3              C(gr)           H2O(cr)        
 H2O(L)         

 NOTE. WEIGHT FRACTION OF FUEL IN TOTAL FUELS AND OF OXIDANT IN TOTAL OXIDANTS






 WARNING!!  ASSIGNED pip =   0.00000 IS NOT PERMITTED
 TO BE LESS THAN  Pinj/Pc =  1.00052. POINT OMITTED (ROCKET)





              THEORETICAL ROCKET PERFORMANCE ASSUMING EQUILIBRIUM

            COMPOSITION DURING EXPANSION FROM FINITE AREA COMBUSTOR

 Pin =   143.4 PSIA
 Ac/At = 29.7521      Pinj/Pinf =  1.000261
 CASE =                

             REACTANT                    WT FRACTION      ENERGY      TEMP
                                          (SEE NOTE)     KJ/KG-MOL      K  
 OXIDANT     O2(L)                        1.0000000    -12979.000     90.170
 FUEL        PMMA                         1.0000000   -442140.000    293.150

 O/F=   45.27173  %FUEL=  2.161147  R,EQ.RATIO= 0.049073  PHI,EQ.RATIO= 0.042360

                 INJECTOR  COMB END  THROAT
 Pinj/P            1.0000   1.0005   1.8799
 P, BAR            9.8900   9.8848   5.2608
 T, K              447.06   447.02   376.90
 RHO, KG/CU M    8.5215 0 8.5177 0 5.3767 0
 H, KJ/KG         -492.29  -492.32  -559.63
 U, KJ/KG         -608.34  -608.37  -657.47
 G, KJ/KG        -3291.33 -3291.20 -2919.42
 S, KJ/(KG)(K)     6.2611   6.2611   6.2611

 M, (1/n)          32.027   32.027   32.027
 (dLV/dLP)t      -1.00000 -1.00000 -1.00000
 (dLV/dLT)p        1.0000   1.0000   1.0000
 Cp, KJ/(KG)(K)    0.9711   0.9711   0.9490
 GAMMAs            1.3649   1.3649   1.3766
 SON VEL,M/SEC      398.0    398.0    367.0
 MACH NUMBER        0.000    0.020    1.000

 PERFORMANCE PARAMETERS

 Ae/At                      29.754   1.0000
 CSTAR, M/SEC                501.1    501.1
 CF                         0.0155   0.7324
 Ivac, M/SEC               14913.0    633.6
 Isp, M/SEC                    7.8    367.0


 MOLE FRACTIONS

 *CO2             0.03457  0.03457  0.03457
 H2O              0.02765  0.02765  0.02765
 *O2              0.93778  0.93778  0.93778

  * THERMODYNAMIC PROPERTIES FITTED TO 20000.K

    PRODUCTS WHICH WERE CONSIDERED BUT WHOSE MOLE FRACTIONS
    WERE LESS THAN 5.000000E-06 FOR ALL ASSIGNED CONDITIONS

 *C              *CH             CH2             CH3             CH2OH          
 CH3O            CH4             CH3OH           CH3OOH          *CO            
 COOH            *C2             C2H             C2H2,acetylene  C2H2,vinylidene
 CH2CO,ketene    O(CH)2O         HO(CO)2OH       C2H3,vinyl      CH3CO,acetyl   
 C2H4            C2H4O,ethylen-o CH3CHO,ethanal  CH3COOH         OHCH2COOH      
 C2H5            C2H6            C2H5OH          CH3OCH3         CH3O2CH3       
 C2O             *C3             C3H3,1-propynl  C3H3,2-propynl  C3H4,allene    
 C3H4,propyne    C3H4,cyclo-     C3H5,allyl      C3H6,propylene  C3H6,cyclo-    
 C3H6O,propylox  C3H6O,acetone   C3H6O,propanal  C3H7,n-propyl   C3H7,i-propyl  
 C3H8            C3H8O,1propanol C3H8O,2propanol C3O2            *C4            
 C4H2,butadiyne  C4H4,1,3-cyclo- C4H6,butadiene  C4H6,1butyne    C4H6,2butyne   
 C4H6,cyclo-     C4H8,1-butene   C4H8,cis2-buten C4H8,tr2-butene C4H8,isobutene 
 C4H8,cyclo-     (CH3COOH)2      C4H9,n-butyl    C4H9,i-butyl    C4H9,s-butyl   
 C4H9,t-butyl    C4H10,n-butane  C4H10,isobutane *C5             C5H6,1,3cyclo- 
 C5H8,cyclo-     C5H10,1-pentene C5H10,cyclo-    C5H11,pentyl    C5H11,t-pentyl 
 C5H12,n-pentane C5H12,i-pentane CH3C(CH3)2CH3   C6H2            C6H5,phenyl    
 C6H5O,phenoxy   C6H6            C6H5OH,phenol   C6H10,cyclo-    C6H12,1-hexene 
 C6H12,cyclo-    C6H13,n-hexyl   C6H14,n-hexane  C7H7,benzyl     C7H8           
 C7H8O,cresol-mx C7H14,1-heptene C7H15,n-heptyl  C7H16,n-heptane C7H16,2-methylh
 C8H8,styrene    C8H10,ethylbenz C8H16,1-octene  C8H17,n-octyl   C8H18,n-octane 
 C8H18,isooctane C9H19,n-nonyl   C10H8,naphthale C10H21,n-decyl  C12H9,o-bipheny
 C12H10,biphenyl *H              HCO             HCCO            HO2            
 *H2             HCHO,formaldehy HCOOH           H2O2            (HCOOH)2       
 *O              *OH             O3              C(gr)           H2O(cr)        
 H2O(L)         

 NOTE. WEIGHT FRACTION OF FUEL IN TOTAL FUELS AND OF OXIDANT IN TOTAL OXIDANTS





   4    5     173.674     -13.230    -276.972     -91.174
 ADD  H2O(cr)        
   4    4     208.092     -13.034    -231.834     -80.937





              THEORETICAL ROCKET PERFORMANCE ASSUMING EQUILIBRIUM

            COMPOSITION DURING EXPANSION FROM FINITE AREA COMBUSTOR

 Pin =   143.4 PSIA
 Ac/At = 29.7521      Pinj/Pinf =  1.000261
 CASE =                

             REACTANT                    WT FRACTION      ENERGY      TEMP
                                          (SEE NOTE)     KJ/KG-MOL      K  
 OXIDANT     O2(L)                        1.0000000    -12979.000     90.170
 FUEL        PMMA                         1.0000000   -442140.000    293.150

 O/F=   45.27173  %FUEL=  2.161147  R,EQ.RATIO= 0.049073  PHI,EQ.RATIO= 0.042360

                 INJECTOR  COMB END  THROAT     EXIT
 Pinj/P            1.0000   1.0005   1.8799   29.752
 P, BAR            9.8900   9.8848   5.2608  0.33241
 T, K              447.06   447.02   376.90   208.09
 RHO, KG/CU M    8.5215 0 8.5177 0 5.3767 0 6.3282-1
 H, KJ/KG         -492.29  -492.32  -559.63  -760.69
 U, KJ/KG         -608.34  -608.37  -657.47  -813.22
 G, KJ/KG        -3291.33 -3291.20 -2919.42 -2063.58
 S, KJ/(KG)(K)     6.2611   6.2611   6.2611   6.2611

 M, (1/n)          32.027   32.027   32.027   32.938
 MW, MOL WT        32.027   32.027   32.027   32.027
 (dLV/dLP)t      -1.00000 -1.00000 -1.00000 -1.00002
 (dLV/dLT)p        1.0000   1.0000   1.0000   1.0005
 Cp, KJ/(KG)(K)    0.9711   0.9711   0.9490   0.9174
 GAMMAs            1.3649   1.3649   1.3766   1.3801
 SON VEL,M/SEC      398.0    398.0    367.0    269.2
 MACH NUMBER        0.000    0.020    1.000    2.721

 PERFORMANCE PARAMETERS

 Ae/At                      29.754   1.0000   4.2559
 CSTAR, M/SEC                501.1    501.1    501.1
 CF                         0.0155   0.7324   1.4622
 Ivac, M/SEC               14913.0    633.6    804.4
 Isp, M/SEC                    7.8    367.0    732.7


 MOLE FRACTIONS

 *CO2             0.03457  0.03457  0.03457  0.03457
 H2O              0.02765  0.02765  0.02765  0.00002
 *O2              0.93778  0.93778  0.93778  0.93778
 H2O(cr)          0.00000  0.00000  0.00000  0.02764

  * THERMODYNAMIC PROPERTIES FITTED TO 20000.K

    PRODUCTS WHICH WERE CONSIDERED BUT WHOSE MOLE FRACTIONS
    WERE LESS THAN 5.000000E-06 FOR ALL ASSIGNED CONDITIONS

 *C              *CH             CH2             CH3             CH2OH          
 CH3O            CH4             CH3OH           CH3OOH          *CO            
 COOH            *C2             C2H             C2H2,acetylene  C2H2,vinylidene
 CH2CO,ketene    O(CH)2O         HO(CO)2OH       C2H3,vinyl      CH3CO,acetyl   
 C2H4            C2H4O,ethylen-o CH3CHO,ethanal  CH3COOH         OHCH2COOH      
 C2H5            C2H6            C2H5OH          CH3OCH3         CH3O2CH3       
 C2O             *C3             C3H3,1-propynl  C3H3,2-propynl  C3H4,allene    
 C3H4,propyne    C3H4,cyclo-     C3H5,allyl      C3H6,propylene  C3H6,cyclo-    
 C3H6O,propylox  C3H6O,acetone   C3H6O,propanal  C3H7,n-propyl   C3H7,i-propyl  
 C3H8            C3H8O,1propanol C3H8O,2propanol C3O2            *C4            
 C4H2,butadiyne  C4H4,1,3-cyclo- C4H6,butadiene  C4H6,1butyne    C4H6,2butyne   
 C4H6,cyclo-     C4H8,1-butene   C4H8,cis2-buten C4H8,tr2-butene C4H8,isobutene 
 C4H8,cyclo-     (CH3COOH)2      C4H9,n-butyl    C4H9,i-butyl    C4H9,s-butyl   
 C4H9,t-butyl    C4H10,n-butane  C4H10,isobutane *C5             C5H6,1,3cyclo- 
 C5H8,cyclo-     C5H10,1-pentene C5H10,cyclo-    C5H11,pentyl    C5H11,t-pentyl 
 C5H12,n-pentane C5H12,i-pentane CH3C(CH3)2CH3   C6H2            C6H5,phenyl    
 C6H5O,phenoxy   C6H6            C6H5OH,phenol   C6H10,cyclo-    C6H12,1-hexene 
 C6H12,cyclo-    C6H13,n-hexyl   C6H14,n-hexane  C7H7,benzyl     C7H8           
 C7H8O,cresol-mx C7H14,1-heptene C7H15,n-heptyl  C7H16,n-heptane C7H16,2-methylh
 C8H8,styrene    C8H10,ethylbenz C8H16,1-octene  C8H17,n-octyl   C8H18,n-octane 
 C8H18,isooctane C9H19,n-nonyl   C10H8,naphthale C10H21,n-decyl  C12H9,o-bipheny
 C12H10,biphenyl *H              HCO             HCCO            HO2            
 *H2             HCHO,formaldehy HCOOH           H2O2            (HCOOH)2       
 *O              *OH             O3              C(gr)           H2O(L)         

 NOTE. WEIGHT FRACTION OF FUEL IN TOTAL FUELS AND OF OXIDANT IN TOTAL OXIDANTS



