
 *******************************************************************************

         NASA-GLENN CHEMICAL EQUILIBRIUM PROGRAM CEA2, MAY 21, 2004
                   BY  BONNIE MCBRIDE AND SANFORD GORDON
      REFS: NASA RP-1311, PART I, 1994 AND NASA RP-1311, PART II, 1996

 *******************************************************************************



 prob rocket fac p,bar=11.55,ac/at=10000.0,
 o/f=48.2301669532, pi/pe=1, eq
 react
 	oxid=O2(L) wt=100
 	fuel=PMMA  wt=100 t,k=293.15
 	h,kj/mol=-442.14  C 5 H 8 O 2
