
 *******************************************************************************

         NASA-GLENN CHEMICAL EQUILIBRIUM PROGRAM CEA2, MAY 21, 2004
                   BY  BONNIE MCBRIDE AND SANFORD GORDON
      REFS: NASA RP-1311, PART I, 1994 AND NASA RP-1311, PART II, 1996

 *******************************************************************************



 prob rocket fac p,bar=13.75,ac/at=13.6466077427,
 o/f=1.30248129291, pi/pe=1, eq
 react
 	oxid=O2  wt=0.982177421359	t,k=346.8
 	oxid=H2O wt=0.0106935471849	t,k=346.8
 	oxid=CO2 wt=0.00712903145657	t,k=346.8
 	fuel=PMMA  wt=100 t,k=293.15
 	h,kj/mol=-442.14  C 5 H 8 O 2
 end

 OPTIONS: TP=F  HP=F  SP=F  TV=F  UV=F  SV=F  DETN=F  SHOCK=F  REFL=F  INCD=F
 RKT=T  FROZ=F  EQL=T  IONS=F  SIUNIT=T  DEBUGF=F  SHKDBG=F  DETDBG=T  TRNSPT=F

 TRACE= 0.00E+00  S/R= 0.000000E+00  H/R= 0.000000E+00  U/R= 0.000000E+00

 Pc,BAR =    13.750000

 Pc/P =     1.0000

 SUBSONIC AREA RATIOS =

 SUPERSONIC AREA RATIOS =

 NFZ=  1  Mdot/Ac= 0.000000E+00  Ac/At= 1.364661E+01

    REACTANT          WT.FRAC   (ENERGY/R),K   TEMP,K  DENSITY
        EXPLODED FORMULA
 O: O2               0.982177   0.172718E+03   346.80  0.0000
          O  2.00000
 O: H2O              0.010694  -0.288875E+05   346.80  0.0000
          H  2.00000  O  1.00000
 O: CO2              0.007129  -0.471045E+05   346.80  0.0000
          C  1.00000  O  2.00000
 F: PMMA             1.000000  -0.531769E+05   293.15  0.0000
          C  5.00000  H  8.00000  O  2.00000

  SPECIES BEING CONSIDERED IN THIS SYSTEM
 (CONDENSED PHASE MAY HAVE NAME LISTED SEVERAL TIMES)
  LAST thermo.inp UPDATE:    9/09/04

  g 7/97  *C               tpis79  *CH              g 4/02  CH2            
  g 4/02  CH3              g11/00  CH2OH            g 7/00  CH3O           
  g 8/99  CH4              g 7/00  CH3OH            srd 01  CH3OOH         
  tpis79  *CO              g 9/99  *CO2             tpis91  COOH           
  tpis91  *C2              g 6/01  C2H              g 1/91  C2H2,acetylene 
  g 5/01  C2H2,vinylidene  g 4/02  CH2CO,ketene     g 3/02  O(CH)2O        
  srd 01  HO(CO)2OH        g 7/01  C2H3,vinyl       g 6/96  CH3CO,acetyl   
  g 1/00  C2H4             g 8/88  C2H4O,ethylen-o  g 8/88  CH3CHO,ethanal 
  g 6/00  CH3COOH          srd 01  OHCH2COOH        g 7/00  C2H5           
  g 7/00  C2H6             g 8/88  C2H5OH           g 7/00  CH3OCH3        
  srd 01  CH3O2CH3         g 8/00  C2O              tpis79  *C3            
  n 4/98  C3H3,1-propynl   n 4/98  C3H3,2-propynl   g 2/00  C3H4,allene    
  g 1/00  C3H4,propyne     g 5/90  C3H4,cyclo-      g 3/01  C3H5,allyl     
  g 2/00  C3H6,propylene   g 1/00  C3H6,cyclo-      g 6/01  C3H6O,propylox 
  g 6/97  C3H6O,acetone    g 1/02  C3H6O,propanal   g 7/01  C3H7,n-propyl  
  g 9/85  C3H7,i-propyl    g 2/00  C3H8             g 2/00  C3H8O,1propanol
  g 2/00  C3H8O,2propanol  g 7/88  C3O2             g tpis  *C4            
  g 7/01  C4H2,butadiyne   g 8/00  C4H4,1,3-cyclo-  n10/92  C4H6,butadiene 
  n10/93  C4H6,1butyne     n10/93  C4H6,2butyne     g 8/00  C4H6,cyclo-    
  n 4/88  C4H8,1-butene    n 4/88  C4H8,cis2-buten  n 4/88  C4H8,tr2-butene
  n 4/88  C4H8,isobutene   g 8/00  C4H8,cyclo-      g10/00  (CH3COOH)2     
  n10/84  C4H9,n-butyl     n10/84  C4H9,i-butyl     g 1/93  C4H9,s-butyl   
  g 1/93  C4H9,t-butyl     g12/00  C4H10,n-butane   g 8/00  C4H10,isobutane
  g 8/00  *C5              g 5/90  C5H6,1,3cyclo-   g 1/93  C5H8,cyclo-    
  n 4/87  C5H10,1-pentene  g 2/01  C5H10,cyclo-     n10/84  C5H11,pentyl   
  g 1/93  C5H11,t-pentyl   n10/85  C5H12,n-pentane  n10/85  C5H12,i-pentane
  n10/85  CH3C(CH3)2CH3    g 2/93  C6H2             g11/00  C6H5,phenyl    
  g 8/00  C6H5O,phenoxy    g 8/00  C6H6             g 8/00  C6H5OH,phenol  
  g 1/93  C6H10,cyclo-     n 4/87  C6H12,1-hexene   g 6/90  C6H12,cyclo-   
  n10/83  C6H13,n-hexyl    g 6/01  C6H14,n-hexane   g 7/01  C7H7,benzyl    
  g 1/93  C7H8             g12/00  C7H8O,cresol-mx  n 4/87  C7H14,1-heptene
  n10/83  C7H15,n-heptyl   n10/85  C7H16,n-heptane  n10/85  C7H16,2-methylh
  n 4/89  C8H8,styrene     n10/86  C8H10,ethylbenz  n 4/87  C8H16,1-octene 
  n10/83  C8H17,n-octyl    n 4/85  C8H18,n-octane   n 4/85  C8H18,isooctane
  n10/83  C9H19,n-nonyl    g 3/01  C10H8,naphthale  n10/83  C10H21,n-decyl 
  g 8/00  C12H9,o-bipheny  g 8/00  C12H10,biphenyl  g 6/97  *H             
  g 1/01  HCO              g 6/01  HCCO             g 4/02  HO2            
  tpis78  *H2              g 5/01  HCHO,formaldehy  g 6/01  HCOOH          
  g 8/89  H2O              g 6/99  H2O2             g 6/01  (HCOOH)2       
  g 5/97  *O               g 4/02  *OH              tpis89  *O2            
  g 8/01  O3               n 4/83  C(gr)            n 4/83  C(gr)          
  n 4/83  C(gr)            g11/99  H2O(cr)          g 8/01  H2O(L)         
  g 8/01  H2O(L)         

 O/F =   1.302481

                       EFFECTIVE FUEL     EFFECTIVE OXIDANT        MIXTURE
 ENTHALPY                  h(2)/R              h(1)/R               h0/R
 (KG-MOL)(K)/KG       -0.53115398E+03     -0.19476088E+02     -0.24170499E+03

 KG-FORM.WT./KG             bi(2)               bi(1)               b0i
  *O                   0.19976863E-01      0.62305950E-01      0.43921832E-01
  *H                   0.79907451E-01      0.11871641E-02      0.35376492E-01
  *C                   0.49942157E-01      0.16198847E-03      0.21782216E-01

 POINT ITN      T            O           H           C 
   1   23    3235.470     -16.385     -10.472     -15.564
   2    2    3232.333     -16.394     -10.484     -15.586
 Pinf/Pt = 1.731442
   3    4    3064.754     -16.763     -10.663     -15.802
 Pinf/Pt = 1.732170
   3    2    3064.627     -16.764     -10.663     -15.802
   4    1    3232.278     -16.394     -10.485     -15.586
   4    2    3232.179     -16.394     -10.485     -15.586
   4    2    3232.059     -16.395     -10.485     -15.586
   4    1    3232.003     -16.395     -10.485     -15.586
   4    1    3231.997     -16.395     -10.485     -15.586
   2    2    3235.356     -16.385     -10.472     -15.565
 Pinf/Pt = 1.731574
   3    4    3067.190     -16.756     -10.651     -15.781
 Pinf/Pt = 1.732326
   3    2    3067.059     -16.756     -10.651     -15.781
   4    1    3235.301     -16.386     -10.472     -15.565
   4    2    3235.201     -16.386     -10.472     -15.565
   4    2    3235.081     -16.386     -10.472     -15.566
   4    1    3235.025     -16.386     -10.472     -15.566
   4    1    3235.019     -16.386     -10.472     -15.566
 END OF CHAMBER ITERATIONS

 WARNING!!  ASSIGNED pip =   1.00000 IS NOT PERMITTED
 TO BE LESS THAN  Pinj/Pc =  1.00217. POINT OMITTED (ROCKET)





              THEORETICAL ROCKET PERFORMANCE ASSUMING EQUILIBRIUM

            COMPOSITION DURING EXPANSION FROM FINITE AREA COMBUSTOR

 Pin =   199.4 PSIA
 Ac/At = 13.6466      Pinj/Pinf =  1.001085
 CASE =                

             REACTANT                    WT FRACTION      ENERGY      TEMP
                                          (SEE NOTE)     KJ/KG-MOL      K  
 OXIDANT     O2                           0.9821774      1436.063    346.800
 OXIDANT     H2O                          0.0106935   -240185.810    346.800
 OXIDANT     CO2                          0.0071290   -391650.886    346.800
 FUEL        PMMA                         1.0000000   -442140.000    293.150

 O/F=    1.30248  %FUEL= 43.431406  R,EQ.RATIO= 1.394584  PHI,EQ.RATIO= 1.499066

                 INJECTOR  COMB END  THROAT
 Pinj/P            1.0000   1.0022   1.7342
 P, BAR            13.750   13.720   7.9287
 T, K             3235.47  3235.02  3067.06
 RHO, KG/CU M    1.2368 0 1.2343 0 7.6132-1
 H, KJ/KG        -2009.66 -2010.87 -2601.02
 U, KJ/KG        -3121.43 -3122.47 -3642.47
 G, KJ/KG        -38445.9 -38443.2 -37141.8
 S, KJ/(KG)(K)    11.2615  11.2619  11.2619

 M, (1/n)          24.197   24.197   24.486
 (dLV/dLP)t      -1.02614 -1.02614 -1.01976
 (dLV/dLT)p        1.5096   1.5095   1.4066
 Cp, KJ/(KG)(K)    5.4079   5.4078   4.8262
 GAMMAs            1.1346   1.1346   1.1357
 SON VEL,M/SEC     1123.1   1123.0   1087.5
 MACH NUMBER        0.000    0.044    1.000

 PERFORMANCE PARAMETERS

 Ae/At                      13.648   1.0000
 CSTAR, M/SEC               1658.9   1658.9
 CF                         0.0296   0.6556
 Ivac, M/SEC               22665.0   2045.2
 Isp, M/SEC                   49.2   1087.5


 MOLE FRACTIONS

 *CO              0.36153  0.36152  0.35675
 *CO2             0.16552  0.16553  0.17660
 *H               0.02453  0.02453  0.02020
 HCO              0.00001  0.00001  0.00000
 HO2              0.00002  0.00002  0.00001
 *H2              0.08643  0.08643  0.08641
 H2O              0.31064  0.31065  0.32237
 *O               0.00584  0.00584  0.00372
 *OH              0.03729  0.03728  0.02846
 *O2              0.00819  0.00818  0.00547

  * THERMODYNAMIC PROPERTIES FITTED TO 20000.K

    PRODUCTS WHICH WERE CONSIDERED BUT WHOSE MOLE FRACTIONS
    WERE LESS THAN 5.000000E-06 FOR ALL ASSIGNED CONDITIONS

 *C              *CH             CH2             CH3             CH2OH          
 CH3O            CH4             CH3OH           CH3OOH          COOH           
 *C2             C2H             C2H2,acetylene  C2H2,vinylidene CH2CO,ketene   
 O(CH)2O         HO(CO)2OH       C2H3,vinyl      CH3CO,acetyl    C2H4           
 C2H4O,ethylen-o CH3CHO,ethanal  CH3COOH         OHCH2COOH       C2H5           
 C2H6            C2H5OH          CH3OCH3         CH3O2CH3        C2O            
 *C3             C3H3,1-propynl  C3H3,2-propynl  C3H4,allene     C3H4,propyne   
 C3H4,cyclo-     C3H5,allyl      C3H6,propylene  C3H6,cyclo-     C3H6O,propylox 
 C3H6O,acetone   C3H6O,propanal  C3H7,n-propyl   C3H7,i-propyl   C3H8           
 C3H8O,1propanol C3H8O,2propanol C3O2            *C4             C4H2,butadiyne 
 C4H4,1,3-cyclo- C4H6,butadiene  C4H6,1butyne    C4H6,2butyne    C4H6,cyclo-    
 C4H8,1-butene   C4H8,cis2-buten C4H8,tr2-butene C4H8,isobutene  C4H8,cyclo-    
 (CH3COOH)2      C4H9,n-butyl    C4H9,i-butyl    C4H9,s-butyl    C4H9,t-butyl   
 C4H10,n-butane  C4H10,isobutane *C5             C5H6,1,3cyclo-  C5H8,cyclo-    
 C5H10,1-pentene C5H10,cyclo-    C5H11,pentyl    C5H11,t-pentyl  C5H12,n-pentane
 C5H12,i-pentane CH3C(CH3)2CH3   C6H2            C6H5,phenyl     C6H5O,phenoxy  
 C6H6            C6H5OH,phenol   C6H10,cyclo-    C6H12,1-hexene  C6H12,cyclo-   
 C6H13,n-hexyl   C6H14,n-hexane  C7H7,benzyl     C7H8            C7H8O,cresol-mx
 C7H14,1-heptene C7H15,n-heptyl  C7H16,n-heptane C7H16,2-methylh C8H8,styrene   
 C8H10,ethylbenz C8H16,1-octene  C8H17,n-octyl   C8H18,n-octane  C8H18,isooctane
 C9H19,n-nonyl   C10H8,naphthale C10H21,n-decyl  C12H9,o-bipheny C12H10,biphenyl
 HCCO            HCHO,formaldehy HCOOH           H2O2            (HCOOH)2       
 O3              C(gr)           H2O(cr)         H2O(L)         

 NOTE. WEIGHT FRACTION OF FUEL IN TOTAL FUELS AND OF OXIDANT IN TOTAL OXIDANTS






 WARNING!!  ASSIGNED pip =   0.00000 IS NOT PERMITTED
 TO BE LESS THAN  Pinj/Pc =  1.00217. POINT OMITTED (ROCKET)





              THEORETICAL ROCKET PERFORMANCE ASSUMING EQUILIBRIUM

            COMPOSITION DURING EXPANSION FROM FINITE AREA COMBUSTOR

 Pin =   199.4 PSIA
 Ac/At = 13.6466      Pinj/Pinf =  1.001085
 CASE =                

             REACTANT                    WT FRACTION      ENERGY      TEMP
                                          (SEE NOTE)     KJ/KG-MOL      K  
 OXIDANT     O2                           0.9821774      1436.063    346.800
 OXIDANT     H2O                          0.0106935   -240185.810    346.800
 OXIDANT     CO2                          0.0071290   -391650.886    346.800
 FUEL        PMMA                         1.0000000   -442140.000    293.150

 O/F=    1.30248  %FUEL= 43.431406  R,EQ.RATIO= 1.394584  PHI,EQ.RATIO= 1.499066

                 INJECTOR  COMB END  THROAT
 Pinj/P            1.0000   1.0022   1.7342
 P, BAR            13.750   13.720   7.9287
 T, K             3235.47  3235.02  3067.06
 RHO, KG/CU M    1.2368 0 1.2343 0 7.6132-1
 H, KJ/KG        -2009.66 -2010.87 -2601.02
 U, KJ/KG        -3121.43 -3122.47 -3642.47
 G, KJ/KG        -38445.9 -38443.2 -37141.8
 S, KJ/(KG)(K)    11.2615  11.2619  11.2619

 M, (1/n)          24.197   24.197   24.486
 (dLV/dLP)t      -1.02614 -1.02614 -1.01976
 (dLV/dLT)p        1.5096   1.5095   1.4066
 Cp, KJ/(KG)(K)    5.4079   5.4078   4.8262
 GAMMAs            1.1346   1.1346   1.1357
 SON VEL,M/SEC     1123.1   1123.0   1087.5
 MACH NUMBER        0.000    0.044    1.000

 PERFORMANCE PARAMETERS

 Ae/At                      13.648   1.0000
 CSTAR, M/SEC               1658.9   1658.9
 CF                         0.0296   0.6556
 Ivac, M/SEC               22665.0   2045.2
 Isp, M/SEC                   49.2   1087.5


 MOLE FRACTIONS

 *CO              0.36153  0.36152  0.35675
 *CO2             0.16552  0.16553  0.17660
 *H               0.02453  0.02453  0.02020
 HCO              0.00001  0.00001  0.00000
 HO2              0.00002  0.00002  0.00001
 *H2              0.08643  0.08643  0.08641
 H2O              0.31064  0.31065  0.32237
 *O               0.00584  0.00584  0.00372
 *OH              0.03729  0.03728  0.02846
 *O2              0.00819  0.00818  0.00547

  * THERMODYNAMIC PROPERTIES FITTED TO 20000.K

    PRODUCTS WHICH WERE CONSIDERED BUT WHOSE MOLE FRACTIONS
    WERE LESS THAN 5.000000E-06 FOR ALL ASSIGNED CONDITIONS

 *C              *CH             CH2             CH3             CH2OH          
 CH3O            CH4             CH3OH           CH3OOH          COOH           
 *C2             C2H             C2H2,acetylene  C2H2,vinylidene CH2CO,ketene   
 O(CH)2O         HO(CO)2OH       C2H3,vinyl      CH3CO,acetyl    C2H4           
 C2H4O,ethylen-o CH3CHO,ethanal  CH3COOH         OHCH2COOH       C2H5           
 C2H6            C2H5OH          CH3OCH3         CH3O2CH3        C2O            
 *C3             C3H3,1-propynl  C3H3,2-propynl  C3H4,allene     C3H4,propyne   
 C3H4,cyclo-     C3H5,allyl      C3H6,propylene  C3H6,cyclo-     C3H6O,propylox 
 C3H6O,acetone   C3H6O,propanal  C3H7,n-propyl   C3H7,i-propyl   C3H8           
 C3H8O,1propanol C3H8O,2propanol C3O2            *C4             C4H2,butadiyne 
 C4H4,1,3-cyclo- C4H6,butadiene  C4H6,1butyne    C4H6,2butyne    C4H6,cyclo-    
 C4H8,1-butene   C4H8,cis2-buten C4H8,tr2-butene C4H8,isobutene  C4H8,cyclo-    
 (CH3COOH)2      C4H9,n-butyl    C4H9,i-butyl    C4H9,s-butyl    C4H9,t-butyl   
 C4H10,n-butane  C4H10,isobutane *C5             C5H6,1,3cyclo-  C5H8,cyclo-    
 C5H10,1-pentene C5H10,cyclo-    C5H11,pentyl    C5H11,t-pentyl  C5H12,n-pentane
 C5H12,i-pentane CH3C(CH3)2CH3   C6H2            C6H5,phenyl     C6H5O,phenoxy  
 C6H6            C6H5OH,phenol   C6H10,cyclo-    C6H12,1-hexene  C6H12,cyclo-   
 C6H13,n-hexyl   C6H14,n-hexane  C7H7,benzyl     C7H8            C7H8O,cresol-mx
 C7H14,1-heptene C7H15,n-heptyl  C7H16,n-heptane C7H16,2-methylh C8H8,styrene   
 C8H10,ethylbenz C8H16,1-octene  C8H17,n-octyl   C8H18,n-octane  C8H18,isooctane
 C9H19,n-nonyl   C10H8,naphthale C10H21,n-decyl  C12H9,o-bipheny C12H10,biphenyl
 HCCO            HCHO,formaldehy HCOOH           H2O2            (HCOOH)2       
 O3              C(gr)           H2O(cr)         H2O(L)         

 NOTE. WEIGHT FRACTION OF FUEL IN TOTAL FUELS AND OF OXIDANT IN TOTAL OXIDANTS






 WARNING!!  ASSIGNED pip =   0.00000 IS NOT PERMITTED
 TO BE LESS THAN  Pinj/Pc =  1.00217. POINT OMITTED (ROCKET)





              THEORETICAL ROCKET PERFORMANCE ASSUMING EQUILIBRIUM

            COMPOSITION DURING EXPANSION FROM FINITE AREA COMBUSTOR

 Pin =   199.4 PSIA
 Ac/At = 13.6466      Pinj/Pinf =  1.001085
 CASE =                

             REACTANT                    WT FRACTION      ENERGY      TEMP
                                          (SEE NOTE)     KJ/KG-MOL      K  
 OXIDANT     O2                           0.9821774      1436.063    346.800
 OXIDANT     H2O                          0.0106935   -240185.810    346.800
 OXIDANT     CO2                          0.0071290   -391650.886    346.800
 FUEL        PMMA                         1.0000000   -442140.000    293.150

 O/F=    1.30248  %FUEL= 43.431406  R,EQ.RATIO= 1.394584  PHI,EQ.RATIO= 1.499066

                 INJECTOR  COMB END  THROAT
 Pinj/P            1.0000   1.0022   1.7342
 P, BAR            13.750   13.720   7.9287
 T, K             3235.47  3235.02  3067.06
 RHO, KG/CU M    1.2368 0 1.2343 0 7.6132-1
 H, KJ/KG        -2009.66 -2010.87 -2601.02
 U, KJ/KG        -3121.43 -3122.47 -3642.47
 G, KJ/KG        -38445.9 -38443.2 -37141.8
 S, KJ/(KG)(K)    11.2615  11.2619  11.2619

 M, (1/n)          24.197   24.197   24.486
 (dLV/dLP)t      -1.02614 -1.02614 -1.01976
 (dLV/dLT)p        1.5096   1.5095   1.4066
 Cp, KJ/(KG)(K)    5.4079   5.4078   4.8262
 GAMMAs            1.1346   1.1346   1.1357
 SON VEL,M/SEC     1123.1   1123.0   1087.5
 MACH NUMBER        0.000    0.044    1.000

 PERFORMANCE PARAMETERS

 Ae/At                      13.648   1.0000
 CSTAR, M/SEC               1658.9   1658.9
 CF                         0.0296   0.6556
 Ivac, M/SEC               22665.0   2045.2
 Isp, M/SEC                   49.2   1087.5


 MOLE FRACTIONS

 *CO              0.36153  0.36152  0.35675
 *CO2             0.16552  0.16553  0.17660
 *H               0.02453  0.02453  0.02020
 HCO              0.00001  0.00001  0.00000
 HO2              0.00002  0.00002  0.00001
 *H2              0.08643  0.08643  0.08641
 H2O              0.31064  0.31065  0.32237
 *O               0.00584  0.00584  0.00372
 *OH              0.03729  0.03728  0.02846
 *O2              0.00819  0.00818  0.00547

  * THERMODYNAMIC PROPERTIES FITTED TO 20000.K

    PRODUCTS WHICH WERE CONSIDERED BUT WHOSE MOLE FRACTIONS
    WERE LESS THAN 5.000000E-06 FOR ALL ASSIGNED CONDITIONS

 *C              *CH             CH2             CH3             CH2OH          
 CH3O            CH4             CH3OH           CH3OOH          COOH           
 *C2             C2H             C2H2,acetylene  C2H2,vinylidene CH2CO,ketene   
 O(CH)2O         HO(CO)2OH       C2H3,vinyl      CH3CO,acetyl    C2H4           
 C2H4O,ethylen-o CH3CHO,ethanal  CH3COOH         OHCH2COOH       C2H5           
 C2H6            C2H5OH          CH3OCH3         CH3O2CH3        C2O            
 *C3             C3H3,1-propynl  C3H3,2-propynl  C3H4,allene     C3H4,propyne   
 C3H4,cyclo-     C3H5,allyl      C3H6,propylene  C3H6,cyclo-     C3H6O,propylox 
 C3H6O,acetone   C3H6O,propanal  C3H7,n-propyl   C3H7,i-propyl   C3H8           
 C3H8O,1propanol C3H8O,2propanol C3O2            *C4             C4H2,butadiyne 
 C4H4,1,3-cyclo- C4H6,butadiene  C4H6,1butyne    C4H6,2butyne    C4H6,cyclo-    
 C4H8,1-butene   C4H8,cis2-buten C4H8,tr2-butene C4H8,isobutene  C4H8,cyclo-    
 (CH3COOH)2      C4H9,n-butyl    C4H9,i-butyl    C4H9,s-butyl    C4H9,t-butyl   
 C4H10,n-butane  C4H10,isobutane *C5             C5H6,1,3cyclo-  C5H8,cyclo-    
 C5H10,1-pentene C5H10,cyclo-    C5H11,pentyl    C5H11,t-pentyl  C5H12,n-pentane
 C5H12,i-pentane CH3C(CH3)2CH3   C6H2            C6H5,phenyl     C6H5O,phenoxy  
 C6H6            C6H5OH,phenol   C6H10,cyclo-    C6H12,1-hexene  C6H12,cyclo-   
 C6H13,n-hexyl   C6H14,n-hexane  C7H7,benzyl     C7H8            C7H8O,cresol-mx
 C7H14,1-heptene C7H15,n-heptyl  C7H16,n-heptane C7H16,2-methylh C8H8,styrene   
 C8H10,ethylbenz C8H16,1-octene  C8H17,n-octyl   C8H18,n-octane  C8H18,isooctane
 C9H19,n-nonyl   C10H8,naphthale C10H21,n-decyl  C12H9,o-bipheny C12H10,biphenyl
 HCCO            HCHO,formaldehy HCOOH           H2O2            (HCOOH)2       
 O3              C(gr)           H2O(cr)         H2O(L)         

 NOTE. WEIGHT FRACTION OF FUEL IN TOTAL FUELS AND OF OXIDANT IN TOTAL OXIDANTS






 WARNING!!  ASSIGNED pip =   0.00000 IS NOT PERMITTED
 TO BE LESS THAN  Pinj/Pc =  1.00217. POINT OMITTED (ROCKET)





              THEORETICAL ROCKET PERFORMANCE ASSUMING EQUILIBRIUM

            COMPOSITION DURING EXPANSION FROM FINITE AREA COMBUSTOR

 Pin =   199.4 PSIA
 Ac/At = 13.6466      Pinj/Pinf =  1.001085
 CASE =                

             REACTANT                    WT FRACTION      ENERGY      TEMP
                                          (SEE NOTE)     KJ/KG-MOL      K  
 OXIDANT     O2                           0.9821774      1436.063    346.800
 OXIDANT     H2O                          0.0106935   -240185.810    346.800
 OXIDANT     CO2                          0.0071290   -391650.886    346.800
 FUEL        PMMA                         1.0000000   -442140.000    293.150

 O/F=    1.30248  %FUEL= 43.431406  R,EQ.RATIO= 1.394584  PHI,EQ.RATIO= 1.499066

                 INJECTOR  COMB END  THROAT
 Pinj/P            1.0000   1.0022   1.7342
 P, BAR            13.750   13.720   7.9287
 T, K             3235.47  3235.02  3067.06
 RHO, KG/CU M    1.2368 0 1.2343 0 7.6132-1
 H, KJ/KG        -2009.66 -2010.87 -2601.02
 U, KJ/KG        -3121.43 -3122.47 -3642.47
 G, KJ/KG        -38445.9 -38443.2 -37141.8
 S, KJ/(KG)(K)    11.2615  11.2619  11.2619

 M, (1/n)          24.197   24.197   24.486
 (dLV/dLP)t      -1.02614 -1.02614 -1.01976
 (dLV/dLT)p        1.5096   1.5095   1.4066
 Cp, KJ/(KG)(K)    5.4079   5.4078   4.8262
 GAMMAs            1.1346   1.1346   1.1357
 SON VEL,M/SEC     1123.1   1123.0   1087.5
 MACH NUMBER        0.000    0.044    1.000

 PERFORMANCE PARAMETERS

 Ae/At                      13.648   1.0000
 CSTAR, M/SEC               1658.9   1658.9
 CF                         0.0296   0.6556
 Ivac, M/SEC               22665.0   2045.2
 Isp, M/SEC                   49.2   1087.5


 MOLE FRACTIONS

 *CO              0.36153  0.36152  0.35675
 *CO2             0.16552  0.16553  0.17660
 *H               0.02453  0.02453  0.02020
 HCO              0.00001  0.00001  0.00000
 HO2              0.00002  0.00002  0.00001
 *H2              0.08643  0.08643  0.08641
 H2O              0.31064  0.31065  0.32237
 *O               0.00584  0.00584  0.00372
 *OH              0.03729  0.03728  0.02846
 *O2              0.00819  0.00818  0.00547

  * THERMODYNAMIC PROPERTIES FITTED TO 20000.K

    PRODUCTS WHICH WERE CONSIDERED BUT WHOSE MOLE FRACTIONS
    WERE LESS THAN 5.000000E-06 FOR ALL ASSIGNED CONDITIONS

 *C              *CH             CH2             CH3             CH2OH          
 CH3O            CH4             CH3OH           CH3OOH          COOH           
 *C2             C2H             C2H2,acetylene  C2H2,vinylidene CH2CO,ketene   
 O(CH)2O         HO(CO)2OH       C2H3,vinyl      CH3CO,acetyl    C2H4           
 C2H4O,ethylen-o CH3CHO,ethanal  CH3COOH         OHCH2COOH       C2H5           
 C2H6            C2H5OH          CH3OCH3         CH3O2CH3        C2O            
 *C3             C3H3,1-propynl  C3H3,2-propynl  C3H4,allene     C3H4,propyne   
 C3H4,cyclo-     C3H5,allyl      C3H6,propylene  C3H6,cyclo-     C3H6O,propylox 
 C3H6O,acetone   C3H6O,propanal  C3H7,n-propyl   C3H7,i-propyl   C3H8           
 C3H8O,1propanol C3H8O,2propanol C3O2            *C4             C4H2,butadiyne 
 C4H4,1,3-cyclo- C4H6,butadiene  C4H6,1butyne    C4H6,2butyne    C4H6,cyclo-    
 C4H8,1-butene   C4H8,cis2-buten C4H8,tr2-butene C4H8,isobutene  C4H8,cyclo-    
 (CH3COOH)2      C4H9,n-butyl    C4H9,i-butyl    C4H9,s-butyl    C4H9,t-butyl   
 C4H10,n-butane  C4H10,isobutane *C5             C5H6,1,3cyclo-  C5H8,cyclo-    
 C5H10,1-pentene C5H10,cyclo-    C5H11,pentyl    C5H11,t-pentyl  C5H12,n-pentane
 C5H12,i-pentane CH3C(CH3)2CH3   C6H2            C6H5,phenyl     C6H5O,phenoxy  
 C6H6            C6H5OH,phenol   C6H10,cyclo-    C6H12,1-hexene  C6H12,cyclo-   
 C6H13,n-hexyl   C6H14,n-hexane  C7H7,benzyl     C7H8            C7H8O,cresol-mx
 C7H14,1-heptene C7H15,n-heptyl  C7H16,n-heptane C7H16,2-methylh C8H8,styrene   
 C8H10,ethylbenz C8H16,1-octene  C8H17,n-octyl   C8H18,n-octane  C8H18,isooctane
 C9H19,n-nonyl   C10H8,naphthale C10H21,n-decyl  C12H9,o-bipheny C12H10,biphenyl
 HCCO            HCHO,formaldehy HCOOH           H2O2            (HCOOH)2       
 O3              C(gr)           H2O(cr)         H2O(L)         

 NOTE. WEIGHT FRACTION OF FUEL IN TOTAL FUELS AND OF OXIDANT IN TOTAL OXIDANTS






 WARNING!!  ASSIGNED pip =   0.00000 IS NOT PERMITTED
 TO BE LESS THAN  Pinj/Pc =  1.00217. POINT OMITTED (ROCKET)





              THEORETICAL ROCKET PERFORMANCE ASSUMING EQUILIBRIUM

            COMPOSITION DURING EXPANSION FROM FINITE AREA COMBUSTOR

 Pin =   199.4 PSIA
 Ac/At = 13.6466      Pinj/Pinf =  1.001085
 CASE =                

             REACTANT                    WT FRACTION      ENERGY      TEMP
                                          (SEE NOTE)     KJ/KG-MOL      K  
 OXIDANT     O2                           0.9821774      1436.063    346.800
 OXIDANT     H2O                          0.0106935   -240185.810    346.800
 OXIDANT     CO2                          0.0071290   -391650.886    346.800
 FUEL        PMMA                         1.0000000   -442140.000    293.150

 O/F=    1.30248  %FUEL= 43.431406  R,EQ.RATIO= 1.394584  PHI,EQ.RATIO= 1.499066

                 INJECTOR  COMB END  THROAT
 Pinj/P            1.0000   1.0022   1.7342
 P, BAR            13.750   13.720   7.9287
 T, K             3235.47  3235.02  3067.06
 RHO, KG/CU M    1.2368 0 1.2343 0 7.6132-1
 H, KJ/KG        -2009.66 -2010.87 -2601.02
 U, KJ/KG        -3121.43 -3122.47 -3642.47
 G, KJ/KG        -38445.9 -38443.2 -37141.8
 S, KJ/(KG)(K)    11.2615  11.2619  11.2619

 M, (1/n)          24.197   24.197   24.486
 (dLV/dLP)t      -1.02614 -1.02614 -1.01976
 (dLV/dLT)p        1.5096   1.5095   1.4066
 Cp, KJ/(KG)(K)    5.4079   5.4078   4.8262
 GAMMAs            1.1346   1.1346   1.1357
 SON VEL,M/SEC     1123.1   1123.0   1087.5
 MACH NUMBER        0.000    0.044    1.000

 PERFORMANCE PARAMETERS

 Ae/At                      13.648   1.0000
 CSTAR, M/SEC               1658.9   1658.9
 CF                         0.0296   0.6556
 Ivac, M/SEC               22665.0   2045.2
 Isp, M/SEC                   49.2   1087.5


 MOLE FRACTIONS

 *CO              0.36153  0.36152  0.35675
 *CO2             0.16552  0.16553  0.17660
 *H               0.02453  0.02453  0.02020
 HCO              0.00001  0.00001  0.00000
 HO2              0.00002  0.00002  0.00001
 *H2              0.08643  0.08643  0.08641
 H2O              0.31064  0.31065  0.32237
 *O               0.00584  0.00584  0.00372
 *OH              0.03729  0.03728  0.02846
 *O2              0.00819  0.00818  0.00547

  * THERMODYNAMIC PROPERTIES FITTED TO 20000.K

    PRODUCTS WHICH WERE CONSIDERED BUT WHOSE MOLE FRACTIONS
    WERE LESS THAN 5.000000E-06 FOR ALL ASSIGNED CONDITIONS

 *C              *CH             CH2             CH3             CH2OH          
 CH3O            CH4             CH3OH           CH3OOH          COOH           
 *C2             C2H             C2H2,acetylene  C2H2,vinylidene CH2CO,ketene   
 O(CH)2O         HO(CO)2OH       C2H3,vinyl      CH3CO,acetyl    C2H4           
 C2H4O,ethylen-o CH3CHO,ethanal  CH3COOH         OHCH2COOH       C2H5           
 C2H6            C2H5OH          CH3OCH3         CH3O2CH3        C2O            
 *C3             C3H3,1-propynl  C3H3,2-propynl  C3H4,allene     C3H4,propyne   
 C3H4,cyclo-     C3H5,allyl      C3H6,propylene  C3H6,cyclo-     C3H6O,propylox 
 C3H6O,acetone   C3H6O,propanal  C3H7,n-propyl   C3H7,i-propyl   C3H8           
 C3H8O,1propanol C3H8O,2propanol C3O2            *C4             C4H2,butadiyne 
 C4H4,1,3-cyclo- C4H6,butadiene  C4H6,1butyne    C4H6,2butyne    C4H6,cyclo-    
 C4H8,1-butene   C4H8,cis2-buten C4H8,tr2-butene C4H8,isobutene  C4H8,cyclo-    
 (CH3COOH)2      C4H9,n-butyl    C4H9,i-butyl    C4H9,s-butyl    C4H9,t-butyl   
 C4H10,n-butane  C4H10,isobutane *C5             C5H6,1,3cyclo-  C5H8,cyclo-    
 C5H10,1-pentene C5H10,cyclo-    C5H11,pentyl    C5H11,t-pentyl  C5H12,n-pentane
 C5H12,i-pentane CH3C(CH3)2CH3   C6H2            C6H5,phenyl     C6H5O,phenoxy  
 C6H6            C6H5OH,phenol   C6H10,cyclo-    C6H12,1-hexene  C6H12,cyclo-   
 C6H13,n-hexyl   C6H14,n-hexane  C7H7,benzyl     C7H8            C7H8O,cresol-mx
 C7H14,1-heptene C7H15,n-heptyl  C7H16,n-heptane C7H16,2-methylh C8H8,styrene   
 C8H10,ethylbenz C8H16,1-octene  C8H17,n-octyl   C8H18,n-octane  C8H18,isooctane
 C9H19,n-nonyl   C10H8,naphthale C10H21,n-decyl  C12H9,o-bipheny C12H10,biphenyl
 HCCO            HCHO,formaldehy HCOOH           H2O2            (HCOOH)2       
 O3              C(gr)           H2O(cr)         H2O(L)         

 NOTE. WEIGHT FRACTION OF FUEL IN TOTAL FUELS AND OF OXIDANT IN TOTAL OXIDANTS






 WARNING!!  ASSIGNED pip =   0.00000 IS NOT PERMITTED
 TO BE LESS THAN  Pinj/Pc =  1.00217. POINT OMITTED (ROCKET)





              THEORETICAL ROCKET PERFORMANCE ASSUMING EQUILIBRIUM

            COMPOSITION DURING EXPANSION FROM FINITE AREA COMBUSTOR

 Pin =   199.4 PSIA
 Ac/At = 13.6466      Pinj/Pinf =  1.001085
 CASE =                

             REACTANT                    WT FRACTION      ENERGY      TEMP
                                          (SEE NOTE)     KJ/KG-MOL      K  
 OXIDANT     O2                           0.9821774      1436.063    346.800
 OXIDANT     H2O                          0.0106935   -240185.810    346.800
 OXIDANT     CO2                          0.0071290   -391650.886    346.800
 FUEL        PMMA                         1.0000000   -442140.000    293.150

 O/F=    1.30248  %FUEL= 43.431406  R,EQ.RATIO= 1.394584  PHI,EQ.RATIO= 1.499066

                 INJECTOR  COMB END  THROAT
 Pinj/P            1.0000   1.0022   1.7342
 P, BAR            13.750   13.720   7.9287
 T, K             3235.47  3235.02  3067.06
 RHO, KG/CU M    1.2368 0 1.2343 0 7.6132-1
 H, KJ/KG        -2009.66 -2010.87 -2601.02
 U, KJ/KG        -3121.43 -3122.47 -3642.47
 G, KJ/KG        -38445.9 -38443.2 -37141.8
 S, KJ/(KG)(K)    11.2615  11.2619  11.2619

 M, (1/n)          24.197   24.197   24.486
 (dLV/dLP)t      -1.02614 -1.02614 -1.01976
 (dLV/dLT)p        1.5096   1.5095   1.4066
 Cp, KJ/(KG)(K)    5.4079   5.4078   4.8262
 GAMMAs            1.1346   1.1346   1.1357
 SON VEL,M/SEC     1123.1   1123.0   1087.5
 MACH NUMBER        0.000    0.044    1.000

 PERFORMANCE PARAMETERS

 Ae/At                      13.648   1.0000
 CSTAR, M/SEC               1658.9   1658.9
 CF                         0.0296   0.6556
 Ivac, M/SEC               22665.0   2045.2
 Isp, M/SEC                   49.2   1087.5


 MOLE FRACTIONS

 *CO              0.36153  0.36152  0.35675
 *CO2             0.16552  0.16553  0.17660
 *H               0.02453  0.02453  0.02020
 HCO              0.00001  0.00001  0.00000
 HO2              0.00002  0.00002  0.00001
 *H2              0.08643  0.08643  0.08641
 H2O              0.31064  0.31065  0.32237
 *O               0.00584  0.00584  0.00372
 *OH              0.03729  0.03728  0.02846
 *O2              0.00819  0.00818  0.00547

  * THERMODYNAMIC PROPERTIES FITTED TO 20000.K

    PRODUCTS WHICH WERE CONSIDERED BUT WHOSE MOLE FRACTIONS
    WERE LESS THAN 5.000000E-06 FOR ALL ASSIGNED CONDITIONS

 *C              *CH             CH2             CH3             CH2OH          
 CH3O            CH4             CH3OH           CH3OOH          COOH           
 *C2             C2H             C2H2,acetylene  C2H2,vinylidene CH2CO,ketene   
 O(CH)2O         HO(CO)2OH       C2H3,vinyl      CH3CO,acetyl    C2H4           
 C2H4O,ethylen-o CH3CHO,ethanal  CH3COOH         OHCH2COOH       C2H5           
 C2H6            C2H5OH          CH3OCH3         CH3O2CH3        C2O            
 *C3             C3H3,1-propynl  C3H3,2-propynl  C3H4,allene     C3H4,propyne   
 C3H4,cyclo-     C3H5,allyl      C3H6,propylene  C3H6,cyclo-     C3H6O,propylox 
 C3H6O,acetone   C3H6O,propanal  C3H7,n-propyl   C3H7,i-propyl   C3H8           
 C3H8O,1propanol C3H8O,2propanol C3O2            *C4             C4H2,butadiyne 
 C4H4,1,3-cyclo- C4H6,butadiene  C4H6,1butyne    C4H6,2butyne    C4H6,cyclo-    
 C4H8,1-butene   C4H8,cis2-buten C4H8,tr2-butene C4H8,isobutene  C4H8,cyclo-    
 (CH3COOH)2      C4H9,n-butyl    C4H9,i-butyl    C4H9,s-butyl    C4H9,t-butyl   
 C4H10,n-butane  C4H10,isobutane *C5             C5H6,1,3cyclo-  C5H8,cyclo-    
 C5H10,1-pentene C5H10,cyclo-    C5H11,pentyl    C5H11,t-pentyl  C5H12,n-pentane
 C5H12,i-pentane CH3C(CH3)2CH3   C6H2            C6H5,phenyl     C6H5O,phenoxy  
 C6H6            C6H5OH,phenol   C6H10,cyclo-    C6H12,1-hexene  C6H12,cyclo-   
 C6H13,n-hexyl   C6H14,n-hexane  C7H7,benzyl     C7H8            C7H8O,cresol-mx
 C7H14,1-heptene C7H15,n-heptyl  C7H16,n-heptane C7H16,2-methylh C8H8,styrene   
 C8H10,ethylbenz C8H16,1-octene  C8H17,n-octyl   C8H18,n-octane  C8H18,isooctane
 C9H19,n-nonyl   C10H8,naphthale C10H21,n-decyl  C12H9,o-bipheny C12H10,biphenyl
 HCCO            HCHO,formaldehy HCOOH           H2O2            (HCOOH)2       
 O3              C(gr)           H2O(cr)         H2O(L)         

 NOTE. WEIGHT FRACTION OF FUEL IN TOTAL FUELS AND OF OXIDANT IN TOTAL OXIDANTS






 WARNING!!  ASSIGNED pip =   0.00000 IS NOT PERMITTED
 TO BE LESS THAN  Pinj/Pc =  1.00217. POINT OMITTED (ROCKET)





              THEORETICAL ROCKET PERFORMANCE ASSUMING EQUILIBRIUM

            COMPOSITION DURING EXPANSION FROM FINITE AREA COMBUSTOR

 Pin =   199.4 PSIA
 Ac/At = 13.6466      Pinj/Pinf =  1.001085
 CASE =                

             REACTANT                    WT FRACTION      ENERGY      TEMP
                                          (SEE NOTE)     KJ/KG-MOL      K  
 OXIDANT     O2                           0.9821774      1436.063    346.800
 OXIDANT     H2O                          0.0106935   -240185.810    346.800
 OXIDANT     CO2                          0.0071290   -391650.886    346.800
 FUEL        PMMA                         1.0000000   -442140.000    293.150

 O/F=    1.30248  %FUEL= 43.431406  R,EQ.RATIO= 1.394584  PHI,EQ.RATIO= 1.499066

                 INJECTOR  COMB END  THROAT
 Pinj/P            1.0000   1.0022   1.7342
 P, BAR            13.750   13.720   7.9287
 T, K             3235.47  3235.02  3067.06
 RHO, KG/CU M    1.2368 0 1.2343 0 7.6132-1
 H, KJ/KG        -2009.66 -2010.87 -2601.02
 U, KJ/KG        -3121.43 -3122.47 -3642.47
 G, KJ/KG        -38445.9 -38443.2 -37141.8
 S, KJ/(KG)(K)    11.2615  11.2619  11.2619

 M, (1/n)          24.197   24.197   24.486
 (dLV/dLP)t      -1.02614 -1.02614 -1.01976
 (dLV/dLT)p        1.5096   1.5095   1.4066
 Cp, KJ/(KG)(K)    5.4079   5.4078   4.8262
 GAMMAs            1.1346   1.1346   1.1357
 SON VEL,M/SEC     1123.1   1123.0   1087.5
 MACH NUMBER        0.000    0.044    1.000

 PERFORMANCE PARAMETERS

 Ae/At                      13.648   1.0000
 CSTAR, M/SEC               1658.9   1658.9
 CF                         0.0296   0.6556
 Ivac, M/SEC               22665.0   2045.2
 Isp, M/SEC                   49.2   1087.5


 MOLE FRACTIONS

 *CO              0.36153  0.36152  0.35675
 *CO2             0.16552  0.16553  0.17660
 *H               0.02453  0.02453  0.02020
 HCO              0.00001  0.00001  0.00000
 HO2              0.00002  0.00002  0.00001
 *H2              0.08643  0.08643  0.08641
 H2O              0.31064  0.31065  0.32237
 *O               0.00584  0.00584  0.00372
 *OH              0.03729  0.03728  0.02846
 *O2              0.00819  0.00818  0.00547

  * THERMODYNAMIC PROPERTIES FITTED TO 20000.K

    PRODUCTS WHICH WERE CONSIDERED BUT WHOSE MOLE FRACTIONS
    WERE LESS THAN 5.000000E-06 FOR ALL ASSIGNED CONDITIONS

 *C              *CH             CH2             CH3             CH2OH          
 CH3O            CH4             CH3OH           CH3OOH          COOH           
 *C2             C2H             C2H2,acetylene  C2H2,vinylidene CH2CO,ketene   
 O(CH)2O         HO(CO)2OH       C2H3,vinyl      CH3CO,acetyl    C2H4           
 C2H4O,ethylen-o CH3CHO,ethanal  CH3COOH         OHCH2COOH       C2H5           
 C2H6            C2H5OH          CH3OCH3         CH3O2CH3        C2O            
 *C3             C3H3,1-propynl  C3H3,2-propynl  C3H4,allene     C3H4,propyne   
 C3H4,cyclo-     C3H5,allyl      C3H6,propylene  C3H6,cyclo-     C3H6O,propylox 
 C3H6O,acetone   C3H6O,propanal  C3H7,n-propyl   C3H7,i-propyl   C3H8           
 C3H8O,1propanol C3H8O,2propanol C3O2            *C4             C4H2,butadiyne 
 C4H4,1,3-cyclo- C4H6,butadiene  C4H6,1butyne    C4H6,2butyne    C4H6,cyclo-    
 C4H8,1-butene   C4H8,cis2-buten C4H8,tr2-butene C4H8,isobutene  C4H8,cyclo-    
 (CH3COOH)2      C4H9,n-butyl    C4H9,i-butyl    C4H9,s-butyl    C4H9,t-butyl   
 C4H10,n-butane  C4H10,isobutane *C5             C5H6,1,3cyclo-  C5H8,cyclo-    
 C5H10,1-pentene C5H10,cyclo-    C5H11,pentyl    C5H11,t-pentyl  C5H12,n-pentane
 C5H12,i-pentane CH3C(CH3)2CH3   C6H2            C6H5,phenyl     C6H5O,phenoxy  
 C6H6            C6H5OH,phenol   C6H10,cyclo-    C6H12,1-hexene  C6H12,cyclo-   
 C6H13,n-hexyl   C6H14,n-hexane  C7H7,benzyl     C7H8            C7H8O,cresol-mx
 C7H14,1-heptene C7H15,n-heptyl  C7H16,n-heptane C7H16,2-methylh C8H8,styrene   
 C8H10,ethylbenz C8H16,1-octene  C8H17,n-octyl   C8H18,n-octane  C8H18,isooctane
 C9H19,n-nonyl   C10H8,naphthale C10H21,n-decyl  C12H9,o-bipheny C12H10,biphenyl
 HCCO            HCHO,formaldehy HCOOH           H2O2            (HCOOH)2       
 O3              C(gr)           H2O(cr)         H2O(L)         

 NOTE. WEIGHT FRACTION OF FUEL IN TOTAL FUELS AND OF OXIDANT IN TOTAL OXIDANTS






 WARNING!!  ASSIGNED pip =   0.00000 IS NOT PERMITTED
 TO BE LESS THAN  Pinj/Pc =  1.00217. POINT OMITTED (ROCKET)





              THEORETICAL ROCKET PERFORMANCE ASSUMING EQUILIBRIUM

            COMPOSITION DURING EXPANSION FROM FINITE AREA COMBUSTOR

 Pin =   199.4 PSIA
 Ac/At = 13.6466      Pinj/Pinf =  1.001085
 CASE =                

             REACTANT                    WT FRACTION      ENERGY      TEMP
                                          (SEE NOTE)     KJ/KG-MOL      K  
 OXIDANT     O2                           0.9821774      1436.063    346.800
 OXIDANT     H2O                          0.0106935   -240185.810    346.800
 OXIDANT     CO2                          0.0071290   -391650.886    346.800
 FUEL        PMMA                         1.0000000   -442140.000    293.150

 O/F=    1.30248  %FUEL= 43.431406  R,EQ.RATIO= 1.394584  PHI,EQ.RATIO= 1.499066

                 INJECTOR  COMB END  THROAT
 Pinj/P            1.0000   1.0022   1.7342
 P, BAR            13.750   13.720   7.9287
 T, K             3235.47  3235.02  3067.06
 RHO, KG/CU M    1.2368 0 1.2343 0 7.6132-1
 H, KJ/KG        -2009.66 -2010.87 -2601.02
 U, KJ/KG        -3121.43 -3122.47 -3642.47
 G, KJ/KG        -38445.9 -38443.2 -37141.8
 S, KJ/(KG)(K)    11.2615  11.2619  11.2619

 M, (1/n)          24.197   24.197   24.486
 (dLV/dLP)t      -1.02614 -1.02614 -1.01976
 (dLV/dLT)p        1.5096   1.5095   1.4066
 Cp, KJ/(KG)(K)    5.4079   5.4078   4.8262
 GAMMAs            1.1346   1.1346   1.1357
 SON VEL,M/SEC     1123.1   1123.0   1087.5
 MACH NUMBER        0.000    0.044    1.000

 PERFORMANCE PARAMETERS

 Ae/At                      13.648   1.0000
 CSTAR, M/SEC               1658.9   1658.9
 CF                         0.0296   0.6556
 Ivac, M/SEC               22665.0   2045.2
 Isp, M/SEC                   49.2   1087.5


 MOLE FRACTIONS

 *CO              0.36153  0.36152  0.35675
 *CO2             0.16552  0.16553  0.17660
 *H               0.02453  0.02453  0.02020
 HCO              0.00001  0.00001  0.00000
 HO2              0.00002  0.00002  0.00001
 *H2              0.08643  0.08643  0.08641
 H2O              0.31064  0.31065  0.32237
 *O               0.00584  0.00584  0.00372
 *OH              0.03729  0.03728  0.02846
 *O2              0.00819  0.00818  0.00547

  * THERMODYNAMIC PROPERTIES FITTED TO 20000.K

    PRODUCTS WHICH WERE CONSIDERED BUT WHOSE MOLE FRACTIONS
    WERE LESS THAN 5.000000E-06 FOR ALL ASSIGNED CONDITIONS

 *C              *CH             CH2             CH3             CH2OH          
 CH3O            CH4             CH3OH           CH3OOH          COOH           
 *C2             C2H             C2H2,acetylene  C2H2,vinylidene CH2CO,ketene   
 O(CH)2O         HO(CO)2OH       C2H3,vinyl      CH3CO,acetyl    C2H4           
 C2H4O,ethylen-o CH3CHO,ethanal  CH3COOH         OHCH2COOH       C2H5           
 C2H6            C2H5OH          CH3OCH3         CH3O2CH3        C2O            
 *C3             C3H3,1-propynl  C3H3,2-propynl  C3H4,allene     C3H4,propyne   
 C3H4,cyclo-     C3H5,allyl      C3H6,propylene  C3H6,cyclo-     C3H6O,propylox 
 C3H6O,acetone   C3H6O,propanal  C3H7,n-propyl   C3H7,i-propyl   C3H8           
 C3H8O,1propanol C3H8O,2propanol C3O2            *C4             C4H2,butadiyne 
 C4H4,1,3-cyclo- C4H6,butadiene  C4H6,1butyne    C4H6,2butyne    C4H6,cyclo-    
 C4H8,1-butene   C4H8,cis2-buten C4H8,tr2-butene C4H8,isobutene  C4H8,cyclo-    
 (CH3COOH)2      C4H9,n-butyl    C4H9,i-butyl    C4H9,s-butyl    C4H9,t-butyl   
 C4H10,n-butane  C4H10,isobutane *C5             C5H6,1,3cyclo-  C5H8,cyclo-    
 C5H10,1-pentene C5H10,cyclo-    C5H11,pentyl    C5H11,t-pentyl  C5H12,n-pentane
 C5H12,i-pentane CH3C(CH3)2CH3   C6H2            C6H5,phenyl     C6H5O,phenoxy  
 C6H6            C6H5OH,phenol   C6H10,cyclo-    C6H12,1-hexene  C6H12,cyclo-   
 C6H13,n-hexyl   C6H14,n-hexane  C7H7,benzyl     C7H8            C7H8O,cresol-mx
 C7H14,1-heptene C7H15,n-heptyl  C7H16,n-heptane C7H16,2-methylh C8H8,styrene   
 C8H10,ethylbenz C8H16,1-octene  C8H17,n-octyl   C8H18,n-octane  C8H18,isooctane
 C9H19,n-nonyl   C10H8,naphthale C10H21,n-decyl  C12H9,o-bipheny C12H10,biphenyl
 HCCO            HCHO,formaldehy HCOOH           H2O2            (HCOOH)2       
 O3              C(gr)           H2O(cr)         H2O(L)         

 NOTE. WEIGHT FRACTION OF FUEL IN TOTAL FUELS AND OF OXIDANT IN TOTAL OXIDANTS






 WARNING!!  ASSIGNED pip =   0.00000 IS NOT PERMITTED
 TO BE LESS THAN  Pinj/Pc =  1.00217. POINT OMITTED (ROCKET)





              THEORETICAL ROCKET PERFORMANCE ASSUMING EQUILIBRIUM

            COMPOSITION DURING EXPANSION FROM FINITE AREA COMBUSTOR

 Pin =   199.4 PSIA
 Ac/At = 13.6466      Pinj/Pinf =  1.001085
 CASE =                

             REACTANT                    WT FRACTION      ENERGY      TEMP
                                          (SEE NOTE)     KJ/KG-MOL      K  
 OXIDANT     O2                           0.9821774      1436.063    346.800
 OXIDANT     H2O                          0.0106935   -240185.810    346.800
 OXIDANT     CO2                          0.0071290   -391650.886    346.800
 FUEL        PMMA                         1.0000000   -442140.000    293.150

 O/F=    1.30248  %FUEL= 43.431406  R,EQ.RATIO= 1.394584  PHI,EQ.RATIO= 1.499066

                 INJECTOR  COMB END  THROAT
 Pinj/P            1.0000   1.0022   1.7342
 P, BAR            13.750   13.720   7.9287
 T, K             3235.47  3235.02  3067.06
 RHO, KG/CU M    1.2368 0 1.2343 0 7.6132-1
 H, KJ/KG        -2009.66 -2010.87 -2601.02
 U, KJ/KG        -3121.43 -3122.47 -3642.47
 G, KJ/KG        -38445.9 -38443.2 -37141.8
 S, KJ/(KG)(K)    11.2615  11.2619  11.2619

 M, (1/n)          24.197   24.197   24.486
 (dLV/dLP)t      -1.02614 -1.02614 -1.01976
 (dLV/dLT)p        1.5096   1.5095   1.4066
 Cp, KJ/(KG)(K)    5.4079   5.4078   4.8262
 GAMMAs            1.1346   1.1346   1.1357
 SON VEL,M/SEC     1123.1   1123.0   1087.5
 MACH NUMBER        0.000    0.044    1.000

 PERFORMANCE PARAMETERS

 Ae/At                      13.648   1.0000
 CSTAR, M/SEC               1658.9   1658.9
 CF                         0.0296   0.6556
 Ivac, M/SEC               22665.0   2045.2
 Isp, M/SEC                   49.2   1087.5


 MOLE FRACTIONS

 *CO              0.36153  0.36152  0.35675
 *CO2             0.16552  0.16553  0.17660
 *H               0.02453  0.02453  0.02020
 HCO              0.00001  0.00001  0.00000
 HO2              0.00002  0.00002  0.00001
 *H2              0.08643  0.08643  0.08641
 H2O              0.31064  0.31065  0.32237
 *O               0.00584  0.00584  0.00372
 *OH              0.03729  0.03728  0.02846
 *O2              0.00819  0.00818  0.00547

  * THERMODYNAMIC PROPERTIES FITTED TO 20000.K

    PRODUCTS WHICH WERE CONSIDERED BUT WHOSE MOLE FRACTIONS
    WERE LESS THAN 5.000000E-06 FOR ALL ASSIGNED CONDITIONS

 *C              *CH             CH2             CH3             CH2OH          
 CH3O            CH4             CH3OH           CH3OOH          COOH           
 *C2             C2H             C2H2,acetylene  C2H2,vinylidene CH2CO,ketene   
 O(CH)2O         HO(CO)2OH       C2H3,vinyl      CH3CO,acetyl    C2H4           
 C2H4O,ethylen-o CH3CHO,ethanal  CH3COOH         OHCH2COOH       C2H5           
 C2H6            C2H5OH          CH3OCH3         CH3O2CH3        C2O            
 *C3             C3H3,1-propynl  C3H3,2-propynl  C3H4,allene     C3H4,propyne   
 C3H4,cyclo-     C3H5,allyl      C3H6,propylene  C3H6,cyclo-     C3H6O,propylox 
 C3H6O,acetone   C3H6O,propanal  C3H7,n-propyl   C3H7,i-propyl   C3H8           
 C3H8O,1propanol C3H8O,2propanol C3O2            *C4             C4H2,butadiyne 
 C4H4,1,3-cyclo- C4H6,butadiene  C4H6,1butyne    C4H6,2butyne    C4H6,cyclo-    
 C4H8,1-butene   C4H8,cis2-buten C4H8,tr2-butene C4H8,isobutene  C4H8,cyclo-    
 (CH3COOH)2      C4H9,n-butyl    C4H9,i-butyl    C4H9,s-butyl    C4H9,t-butyl   
 C4H10,n-butane  C4H10,isobutane *C5             C5H6,1,3cyclo-  C5H8,cyclo-    
 C5H10,1-pentene C5H10,cyclo-    C5H11,pentyl    C5H11,t-pentyl  C5H12,n-pentane
 C5H12,i-pentane CH3C(CH3)2CH3   C6H2            C6H5,phenyl     C6H5O,phenoxy  
 C6H6            C6H5OH,phenol   C6H10,cyclo-    C6H12,1-hexene  C6H12,cyclo-   
 C6H13,n-hexyl   C6H14,n-hexane  C7H7,benzyl     C7H8            C7H8O,cresol-mx
 C7H14,1-heptene C7H15,n-heptyl  C7H16,n-heptane C7H16,2-methylh C8H8,styrene   
 C8H10,ethylbenz C8H16,1-octene  C8H17,n-octyl   C8H18,n-octane  C8H18,isooctane
 C9H19,n-nonyl   C10H8,naphthale C10H21,n-decyl  C12H9,o-bipheny C12H10,biphenyl
 HCCO            HCHO,formaldehy HCOOH           H2O2            (HCOOH)2       
 O3              C(gr)           H2O(cr)         H2O(L)         

 NOTE. WEIGHT FRACTION OF FUEL IN TOTAL FUELS AND OF OXIDANT IN TOTAL OXIDANTS






 WARNING!!  ASSIGNED pip =   0.00000 IS NOT PERMITTED
 TO BE LESS THAN  Pinj/Pc =  1.00217. POINT OMITTED (ROCKET)





              THEORETICAL ROCKET PERFORMANCE ASSUMING EQUILIBRIUM

            COMPOSITION DURING EXPANSION FROM FINITE AREA COMBUSTOR

 Pin =   199.4 PSIA
 Ac/At = 13.6466      Pinj/Pinf =  1.001085
 CASE =                

             REACTANT                    WT FRACTION      ENERGY      TEMP
                                          (SEE NOTE)     KJ/KG-MOL      K  
 OXIDANT     O2                           0.9821774      1436.063    346.800
 OXIDANT     H2O                          0.0106935   -240185.810    346.800
 OXIDANT     CO2                          0.0071290   -391650.886    346.800
 FUEL        PMMA                         1.0000000   -442140.000    293.150

 O/F=    1.30248  %FUEL= 43.431406  R,EQ.RATIO= 1.394584  PHI,EQ.RATIO= 1.499066

                 INJECTOR  COMB END  THROAT
 Pinj/P            1.0000   1.0022   1.7342
 P, BAR            13.750   13.720   7.9287
 T, K             3235.47  3235.02  3067.06
 RHO, KG/CU M    1.2368 0 1.2343 0 7.6132-1
 H, KJ/KG        -2009.66 -2010.87 -2601.02
 U, KJ/KG        -3121.43 -3122.47 -3642.47
 G, KJ/KG        -38445.9 -38443.2 -37141.8
 S, KJ/(KG)(K)    11.2615  11.2619  11.2619

 M, (1/n)          24.197   24.197   24.486
 (dLV/dLP)t      -1.02614 -1.02614 -1.01976
 (dLV/dLT)p        1.5096   1.5095   1.4066
 Cp, KJ/(KG)(K)    5.4079   5.4078   4.8262
 GAMMAs            1.1346   1.1346   1.1357
 SON VEL,M/SEC     1123.1   1123.0   1087.5
 MACH NUMBER        0.000    0.044    1.000

 PERFORMANCE PARAMETERS

 Ae/At                      13.648   1.0000
 CSTAR, M/SEC               1658.9   1658.9
 CF                         0.0296   0.6556
 Ivac, M/SEC               22665.0   2045.2
 Isp, M/SEC                   49.2   1087.5


 MOLE FRACTIONS

 *CO              0.36153  0.36152  0.35675
 *CO2             0.16552  0.16553  0.17660
 *H               0.02453  0.02453  0.02020
 HCO              0.00001  0.00001  0.00000
 HO2              0.00002  0.00002  0.00001
 *H2              0.08643  0.08643  0.08641
 H2O              0.31064  0.31065  0.32237
 *O               0.00584  0.00584  0.00372
 *OH              0.03729  0.03728  0.02846
 *O2              0.00819  0.00818  0.00547

  * THERMODYNAMIC PROPERTIES FITTED TO 20000.K

    PRODUCTS WHICH WERE CONSIDERED BUT WHOSE MOLE FRACTIONS
    WERE LESS THAN 5.000000E-06 FOR ALL ASSIGNED CONDITIONS

 *C              *CH             CH2             CH3             CH2OH          
 CH3O            CH4             CH3OH           CH3OOH          COOH           
 *C2             C2H             C2H2,acetylene  C2H2,vinylidene CH2CO,ketene   
 O(CH)2O         HO(CO)2OH       C2H3,vinyl      CH3CO,acetyl    C2H4           
 C2H4O,ethylen-o CH3CHO,ethanal  CH3COOH         OHCH2COOH       C2H5           
 C2H6            C2H5OH          CH3OCH3         CH3O2CH3        C2O            
 *C3             C3H3,1-propynl  C3H3,2-propynl  C3H4,allene     C3H4,propyne   
 C3H4,cyclo-     C3H5,allyl      C3H6,propylene  C3H6,cyclo-     C3H6O,propylox 
 C3H6O,acetone   C3H6O,propanal  C3H7,n-propyl   C3H7,i-propyl   C3H8           
 C3H8O,1propanol C3H8O,2propanol C3O2            *C4             C4H2,butadiyne 
 C4H4,1,3-cyclo- C4H6,butadiene  C4H6,1butyne    C4H6,2butyne    C4H6,cyclo-    
 C4H8,1-butene   C4H8,cis2-buten C4H8,tr2-butene C4H8,isobutene  C4H8,cyclo-    
 (CH3COOH)2      C4H9,n-butyl    C4H9,i-butyl    C4H9,s-butyl    C4H9,t-butyl   
 C4H10,n-butane  C4H10,isobutane *C5             C5H6,1,3cyclo-  C5H8,cyclo-    
 C5H10,1-pentene C5H10,cyclo-    C5H11,pentyl    C5H11,t-pentyl  C5H12,n-pentane
 C5H12,i-pentane CH3C(CH3)2CH3   C6H2            C6H5,phenyl     C6H5O,phenoxy  
 C6H6            C6H5OH,phenol   C6H10,cyclo-    C6H12,1-hexene  C6H12,cyclo-   
 C6H13,n-hexyl   C6H14,n-hexane  C7H7,benzyl     C7H8            C7H8O,cresol-mx
 C7H14,1-heptene C7H15,n-heptyl  C7H16,n-heptane C7H16,2-methylh C8H8,styrene   
 C8H10,ethylbenz C8H16,1-octene  C8H17,n-octyl   C8H18,n-octane  C8H18,isooctane
 C9H19,n-nonyl   C10H8,naphthale C10H21,n-decyl  C12H9,o-bipheny C12H10,biphenyl
 HCCO            HCHO,formaldehy HCOOH           H2O2            (HCOOH)2       
 O3              C(gr)           H2O(cr)         H2O(L)         

 NOTE. WEIGHT FRACTION OF FUEL IN TOTAL FUELS AND OF OXIDANT IN TOTAL OXIDANTS






 WARNING!!  ASSIGNED pip =   0.00000 IS NOT PERMITTED
 TO BE LESS THAN  Pinj/Pc =  1.00217. POINT OMITTED (ROCKET)





              THEORETICAL ROCKET PERFORMANCE ASSUMING EQUILIBRIUM

            COMPOSITION DURING EXPANSION FROM FINITE AREA COMBUSTOR

 Pin =   199.4 PSIA
 Ac/At = 13.6466      Pinj/Pinf =  1.001085
 CASE =                

             REACTANT                    WT FRACTION      ENERGY      TEMP
                                          (SEE NOTE)     KJ/KG-MOL      K  
 OXIDANT     O2                           0.9821774      1436.063    346.800
 OXIDANT     H2O                          0.0106935   -240185.810    346.800
 OXIDANT     CO2                          0.0071290   -391650.886    346.800
 FUEL        PMMA                         1.0000000   -442140.000    293.150

 O/F=    1.30248  %FUEL= 43.431406  R,EQ.RATIO= 1.394584  PHI,EQ.RATIO= 1.499066

                 INJECTOR  COMB END  THROAT
 Pinj/P            1.0000   1.0022   1.7342
 P, BAR            13.750   13.720   7.9287
 T, K             3235.47  3235.02  3067.06
 RHO, KG/CU M    1.2368 0 1.2343 0 7.6132-1
 H, KJ/KG        -2009.66 -2010.87 -2601.02
 U, KJ/KG        -3121.43 -3122.47 -3642.47
 G, KJ/KG        -38445.9 -38443.2 -37141.8
 S, KJ/(KG)(K)    11.2615  11.2619  11.2619

 M, (1/n)          24.197   24.197   24.486
 (dLV/dLP)t      -1.02614 -1.02614 -1.01976
 (dLV/dLT)p        1.5096   1.5095   1.4066
 Cp, KJ/(KG)(K)    5.4079   5.4078   4.8262
 GAMMAs            1.1346   1.1346   1.1357
 SON VEL,M/SEC     1123.1   1123.0   1087.5
 MACH NUMBER        0.000    0.044    1.000

 PERFORMANCE PARAMETERS

 Ae/At                      13.648   1.0000
 CSTAR, M/SEC               1658.9   1658.9
 CF                         0.0296   0.6556
 Ivac, M/SEC               22665.0   2045.2
 Isp, M/SEC                   49.2   1087.5


 MOLE FRACTIONS

 *CO              0.36153  0.36152  0.35675
 *CO2             0.16552  0.16553  0.17660
 *H               0.02453  0.02453  0.02020
 HCO              0.00001  0.00001  0.00000
 HO2              0.00002  0.00002  0.00001
 *H2              0.08643  0.08643  0.08641
 H2O              0.31064  0.31065  0.32237
 *O               0.00584  0.00584  0.00372
 *OH              0.03729  0.03728  0.02846
 *O2              0.00819  0.00818  0.00547

  * THERMODYNAMIC PROPERTIES FITTED TO 20000.K

    PRODUCTS WHICH WERE CONSIDERED BUT WHOSE MOLE FRACTIONS
    WERE LESS THAN 5.000000E-06 FOR ALL ASSIGNED CONDITIONS

 *C              *CH             CH2             CH3             CH2OH          
 CH3O            CH4             CH3OH           CH3OOH          COOH           
 *C2             C2H             C2H2,acetylene  C2H2,vinylidene CH2CO,ketene   
 O(CH)2O         HO(CO)2OH       C2H3,vinyl      CH3CO,acetyl    C2H4           
 C2H4O,ethylen-o CH3CHO,ethanal  CH3COOH         OHCH2COOH       C2H5           
 C2H6            C2H5OH          CH3OCH3         CH3O2CH3        C2O            
 *C3             C3H3,1-propynl  C3H3,2-propynl  C3H4,allene     C3H4,propyne   
 C3H4,cyclo-     C3H5,allyl      C3H6,propylene  C3H6,cyclo-     C3H6O,propylox 
 C3H6O,acetone   C3H6O,propanal  C3H7,n-propyl   C3H7,i-propyl   C3H8           
 C3H8O,1propanol C3H8O,2propanol C3O2            *C4             C4H2,butadiyne 
 C4H4,1,3-cyclo- C4H6,butadiene  C4H6,1butyne    C4H6,2butyne    C4H6,cyclo-    
 C4H8,1-butene   C4H8,cis2-buten C4H8,tr2-butene C4H8,isobutene  C4H8,cyclo-    
 (CH3COOH)2      C4H9,n-butyl    C4H9,i-butyl    C4H9,s-butyl    C4H9,t-butyl   
 C4H10,n-butane  C4H10,isobutane *C5             C5H6,1,3cyclo-  C5H8,cyclo-    
 C5H10,1-pentene C5H10,cyclo-    C5H11,pentyl    C5H11,t-pentyl  C5H12,n-pentane
 C5H12,i-pentane CH3C(CH3)2CH3   C6H2            C6H5,phenyl     C6H5O,phenoxy  
 C6H6            C6H5OH,phenol   C6H10,cyclo-    C6H12,1-hexene  C6H12,cyclo-   
 C6H13,n-hexyl   C6H14,n-hexane  C7H7,benzyl     C7H8            C7H8O,cresol-mx
 C7H14,1-heptene C7H15,n-heptyl  C7H16,n-heptane C7H16,2-methylh C8H8,styrene   
 C8H10,ethylbenz C8H16,1-octene  C8H17,n-octyl   C8H18,n-octane  C8H18,isooctane
 C9H19,n-nonyl   C10H8,naphthale C10H21,n-decyl  C12H9,o-bipheny C12H10,biphenyl
 HCCO            HCHO,formaldehy HCOOH           H2O2            (HCOOH)2       
 O3              C(gr)           H2O(cr)         H2O(L)         

 NOTE. WEIGHT FRACTION OF FUEL IN TOTAL FUELS AND OF OXIDANT IN TOTAL OXIDANTS






 WARNING!!  ASSIGNED pip =   0.00000 IS NOT PERMITTED
 TO BE LESS THAN  Pinj/Pc =  1.00217. POINT OMITTED (ROCKET)





              THEORETICAL ROCKET PERFORMANCE ASSUMING EQUILIBRIUM

            COMPOSITION DURING EXPANSION FROM FINITE AREA COMBUSTOR

 Pin =   199.4 PSIA
 Ac/At = 13.6466      Pinj/Pinf =  1.001085
 CASE =                

             REACTANT                    WT FRACTION      ENERGY      TEMP
                                          (SEE NOTE)     KJ/KG-MOL      K  
 OXIDANT     O2                           0.9821774      1436.063    346.800
 OXIDANT     H2O                          0.0106935   -240185.810    346.800
 OXIDANT     CO2                          0.0071290   -391650.886    346.800
 FUEL        PMMA                         1.0000000   -442140.000    293.150

 O/F=    1.30248  %FUEL= 43.431406  R,EQ.RATIO= 1.394584  PHI,EQ.RATIO= 1.499066

                 INJECTOR  COMB END  THROAT
 Pinj/P            1.0000   1.0022   1.7342
 P, BAR            13.750   13.720   7.9287
 T, K             3235.47  3235.02  3067.06
 RHO, KG/CU M    1.2368 0 1.2343 0 7.6132-1
 H, KJ/KG        -2009.66 -2010.87 -2601.02
 U, KJ/KG        -3121.43 -3122.47 -3642.47
 G, KJ/KG        -38445.9 -38443.2 -37141.8
 S, KJ/(KG)(K)    11.2615  11.2619  11.2619

 M, (1/n)          24.197   24.197   24.486
 (dLV/dLP)t      -1.02614 -1.02614 -1.01976
 (dLV/dLT)p        1.5096   1.5095   1.4066
 Cp, KJ/(KG)(K)    5.4079   5.4078   4.8262
 GAMMAs            1.1346   1.1346   1.1357
 SON VEL,M/SEC     1123.1   1123.0   1087.5
 MACH NUMBER        0.000    0.044    1.000

 PERFORMANCE PARAMETERS

 Ae/At                      13.648   1.0000
 CSTAR, M/SEC               1658.9   1658.9
 CF                         0.0296   0.6556
 Ivac, M/SEC               22665.0   2045.2
 Isp, M/SEC                   49.2   1087.5


 MOLE FRACTIONS

 *CO              0.36153  0.36152  0.35675
 *CO2             0.16552  0.16553  0.17660
 *H               0.02453  0.02453  0.02020
 HCO              0.00001  0.00001  0.00000
 HO2              0.00002  0.00002  0.00001
 *H2              0.08643  0.08643  0.08641
 H2O              0.31064  0.31065  0.32237
 *O               0.00584  0.00584  0.00372
 *OH              0.03729  0.03728  0.02846
 *O2              0.00819  0.00818  0.00547

  * THERMODYNAMIC PROPERTIES FITTED TO 20000.K

    PRODUCTS WHICH WERE CONSIDERED BUT WHOSE MOLE FRACTIONS
    WERE LESS THAN 5.000000E-06 FOR ALL ASSIGNED CONDITIONS

 *C              *CH             CH2             CH3             CH2OH          
 CH3O            CH4             CH3OH           CH3OOH          COOH           
 *C2             C2H             C2H2,acetylene  C2H2,vinylidene CH2CO,ketene   
 O(CH)2O         HO(CO)2OH       C2H3,vinyl      CH3CO,acetyl    C2H4           
 C2H4O,ethylen-o CH3CHO,ethanal  CH3COOH         OHCH2COOH       C2H5           
 C2H6            C2H5OH          CH3OCH3         CH3O2CH3        C2O            
 *C3             C3H3,1-propynl  C3H3,2-propynl  C3H4,allene     C3H4,propyne   
 C3H4,cyclo-     C3H5,allyl      C3H6,propylene  C3H6,cyclo-     C3H6O,propylox 
 C3H6O,acetone   C3H6O,propanal  C3H7,n-propyl   C3H7,i-propyl   C3H8           
 C3H8O,1propanol C3H8O,2propanol C3O2            *C4             C4H2,butadiyne 
 C4H4,1,3-cyclo- C4H6,butadiene  C4H6,1butyne    C4H6,2butyne    C4H6,cyclo-    
 C4H8,1-butene   C4H8,cis2-buten C4H8,tr2-butene C4H8,isobutene  C4H8,cyclo-    
 (CH3COOH)2      C4H9,n-butyl    C4H9,i-butyl    C4H9,s-butyl    C4H9,t-butyl   
 C4H10,n-butane  C4H10,isobutane *C5             C5H6,1,3cyclo-  C5H8,cyclo-    
 C5H10,1-pentene C5H10,cyclo-    C5H11,pentyl    C5H11,t-pentyl  C5H12,n-pentane
 C5H12,i-pentane CH3C(CH3)2CH3   C6H2            C6H5,phenyl     C6H5O,phenoxy  
 C6H6            C6H5OH,phenol   C6H10,cyclo-    C6H12,1-hexene  C6H12,cyclo-   
 C6H13,n-hexyl   C6H14,n-hexane  C7H7,benzyl     C7H8            C7H8O,cresol-mx
 C7H14,1-heptene C7H15,n-heptyl  C7H16,n-heptane C7H16,2-methylh C8H8,styrene   
 C8H10,ethylbenz C8H16,1-octene  C8H17,n-octyl   C8H18,n-octane  C8H18,isooctane
 C9H19,n-nonyl   C10H8,naphthale C10H21,n-decyl  C12H9,o-bipheny C12H10,biphenyl
 HCCO            HCHO,formaldehy HCOOH           H2O2            (HCOOH)2       
 O3              C(gr)           H2O(cr)         H2O(L)         

 NOTE. WEIGHT FRACTION OF FUEL IN TOTAL FUELS AND OF OXIDANT IN TOTAL OXIDANTS






 WARNING!!  ASSIGNED pip =   0.00000 IS NOT PERMITTED
 TO BE LESS THAN  Pinj/Pc =  1.00217. POINT OMITTED (ROCKET)





              THEORETICAL ROCKET PERFORMANCE ASSUMING EQUILIBRIUM

            COMPOSITION DURING EXPANSION FROM FINITE AREA COMBUSTOR

 Pin =   199.4 PSIA
 Ac/At = 13.6466      Pinj/Pinf =  1.001085
 CASE =                

             REACTANT                    WT FRACTION      ENERGY      TEMP
                                          (SEE NOTE)     KJ/KG-MOL      K  
 OXIDANT     O2                           0.9821774      1436.063    346.800
 OXIDANT     H2O                          0.0106935   -240185.810    346.800
 OXIDANT     CO2                          0.0071290   -391650.886    346.800
 FUEL        PMMA                         1.0000000   -442140.000    293.150

 O/F=    1.30248  %FUEL= 43.431406  R,EQ.RATIO= 1.394584  PHI,EQ.RATIO= 1.499066

                 INJECTOR  COMB END  THROAT
 Pinj/P            1.0000   1.0022   1.7342
 P, BAR            13.750   13.720   7.9287
 T, K             3235.47  3235.02  3067.06
 RHO, KG/CU M    1.2368 0 1.2343 0 7.6132-1
 H, KJ/KG        -2009.66 -2010.87 -2601.02
 U, KJ/KG        -3121.43 -3122.47 -3642.47
 G, KJ/KG        -38445.9 -38443.2 -37141.8
 S, KJ/(KG)(K)    11.2615  11.2619  11.2619

 M, (1/n)          24.197   24.197   24.486
 (dLV/dLP)t      -1.02614 -1.02614 -1.01976
 (dLV/dLT)p        1.5096   1.5095   1.4066
 Cp, KJ/(KG)(K)    5.4079   5.4078   4.8262
 GAMMAs            1.1346   1.1346   1.1357
 SON VEL,M/SEC     1123.1   1123.0   1087.5
 MACH NUMBER        0.000    0.044    1.000

 PERFORMANCE PARAMETERS

 Ae/At                      13.648   1.0000
 CSTAR, M/SEC               1658.9   1658.9
 CF                         0.0296   0.6556
 Ivac, M/SEC               22665.0   2045.2
 Isp, M/SEC                   49.2   1087.5


 MOLE FRACTIONS

 *CO              0.36153  0.36152  0.35675
 *CO2             0.16552  0.16553  0.17660
 *H               0.02453  0.02453  0.02020
 HCO              0.00001  0.00001  0.00000
 HO2              0.00002  0.00002  0.00001
 *H2              0.08643  0.08643  0.08641
 H2O              0.31064  0.31065  0.32237
 *O               0.00584  0.00584  0.00372
 *OH              0.03729  0.03728  0.02846
 *O2              0.00819  0.00818  0.00547

  * THERMODYNAMIC PROPERTIES FITTED TO 20000.K

    PRODUCTS WHICH WERE CONSIDERED BUT WHOSE MOLE FRACTIONS
    WERE LESS THAN 5.000000E-06 FOR ALL ASSIGNED CONDITIONS

 *C              *CH             CH2             CH3             CH2OH          
 CH3O            CH4             CH3OH           CH3OOH          COOH           
 *C2             C2H             C2H2,acetylene  C2H2,vinylidene CH2CO,ketene   
 O(CH)2O         HO(CO)2OH       C2H3,vinyl      CH3CO,acetyl    C2H4           
 C2H4O,ethylen-o CH3CHO,ethanal  CH3COOH         OHCH2COOH       C2H5           
 C2H6            C2H5OH          CH3OCH3         CH3O2CH3        C2O            
 *C3             C3H3,1-propynl  C3H3,2-propynl  C3H4,allene     C3H4,propyne   
 C3H4,cyclo-     C3H5,allyl      C3H6,propylene  C3H6,cyclo-     C3H6O,propylox 
 C3H6O,acetone   C3H6O,propanal  C3H7,n-propyl   C3H7,i-propyl   C3H8           
 C3H8O,1propanol C3H8O,2propanol C3O2            *C4             C4H2,butadiyne 
 C4H4,1,3-cyclo- C4H6,butadiene  C4H6,1butyne    C4H6,2butyne    C4H6,cyclo-    
 C4H8,1-butene   C4H8,cis2-buten C4H8,tr2-butene C4H8,isobutene  C4H8,cyclo-    
 (CH3COOH)2      C4H9,n-butyl    C4H9,i-butyl    C4H9,s-butyl    C4H9,t-butyl   
 C4H10,n-butane  C4H10,isobutane *C5             C5H6,1,3cyclo-  C5H8,cyclo-    
 C5H10,1-pentene C5H10,cyclo-    C5H11,pentyl    C5H11,t-pentyl  C5H12,n-pentane
 C5H12,i-pentane CH3C(CH3)2CH3   C6H2            C6H5,phenyl     C6H5O,phenoxy  
 C6H6            C6H5OH,phenol   C6H10,cyclo-    C6H12,1-hexene  C6H12,cyclo-   
 C6H13,n-hexyl   C6H14,n-hexane  C7H7,benzyl     C7H8            C7H8O,cresol-mx
 C7H14,1-heptene C7H15,n-heptyl  C7H16,n-heptane C7H16,2-methylh C8H8,styrene   
 C8H10,ethylbenz C8H16,1-octene  C8H17,n-octyl   C8H18,n-octane  C8H18,isooctane
 C9H19,n-nonyl   C10H8,naphthale C10H21,n-decyl  C12H9,o-bipheny C12H10,biphenyl
 HCCO            HCHO,formaldehy HCOOH           H2O2            (HCOOH)2       
 O3              C(gr)           H2O(cr)         H2O(L)         

 NOTE. WEIGHT FRACTION OF FUEL IN TOTAL FUELS AND OF OXIDANT IN TOTAL OXIDANTS






 WARNING!!  ASSIGNED pip =   0.00000 IS NOT PERMITTED
 TO BE LESS THAN  Pinj/Pc =  1.00217. POINT OMITTED (ROCKET)





              THEORETICAL ROCKET PERFORMANCE ASSUMING EQUILIBRIUM

            COMPOSITION DURING EXPANSION FROM FINITE AREA COMBUSTOR

 Pin =   199.4 PSIA
 Ac/At = 13.6466      Pinj/Pinf =  1.001085
 CASE =                

             REACTANT                    WT FRACTION      ENERGY      TEMP
                                          (SEE NOTE)     KJ/KG-MOL      K  
 OXIDANT     O2                           0.9821774      1436.063    346.800
 OXIDANT     H2O                          0.0106935   -240185.810    346.800
 OXIDANT     CO2                          0.0071290   -391650.886    346.800
 FUEL        PMMA                         1.0000000   -442140.000    293.150

 O/F=    1.30248  %FUEL= 43.431406  R,EQ.RATIO= 1.394584  PHI,EQ.RATIO= 1.499066

                 INJECTOR  COMB END  THROAT
 Pinj/P            1.0000   1.0022   1.7342
 P, BAR            13.750   13.720   7.9287
 T, K             3235.47  3235.02  3067.06
 RHO, KG/CU M    1.2368 0 1.2343 0 7.6132-1
 H, KJ/KG        -2009.66 -2010.87 -2601.02
 U, KJ/KG        -3121.43 -3122.47 -3642.47
 G, KJ/KG        -38445.9 -38443.2 -37141.8
 S, KJ/(KG)(K)    11.2615  11.2619  11.2619

 M, (1/n)          24.197   24.197   24.486
 (dLV/dLP)t      -1.02614 -1.02614 -1.01976
 (dLV/dLT)p        1.5096   1.5095   1.4066
 Cp, KJ/(KG)(K)    5.4079   5.4078   4.8262
 GAMMAs            1.1346   1.1346   1.1357
 SON VEL,M/SEC     1123.1   1123.0   1087.5
 MACH NUMBER        0.000    0.044    1.000

 PERFORMANCE PARAMETERS

 Ae/At                      13.648   1.0000
 CSTAR, M/SEC               1658.9   1658.9
 CF                         0.0296   0.6556
 Ivac, M/SEC               22665.0   2045.2
 Isp, M/SEC                   49.2   1087.5


 MOLE FRACTIONS

 *CO              0.36153  0.36152  0.35675
 *CO2             0.16552  0.16553  0.17660
 *H               0.02453  0.02453  0.02020
 HCO              0.00001  0.00001  0.00000
 HO2              0.00002  0.00002  0.00001
 *H2              0.08643  0.08643  0.08641
 H2O              0.31064  0.31065  0.32237
 *O               0.00584  0.00584  0.00372
 *OH              0.03729  0.03728  0.02846
 *O2              0.00819  0.00818  0.00547

  * THERMODYNAMIC PROPERTIES FITTED TO 20000.K

    PRODUCTS WHICH WERE CONSIDERED BUT WHOSE MOLE FRACTIONS
    WERE LESS THAN 5.000000E-06 FOR ALL ASSIGNED CONDITIONS

 *C              *CH             CH2             CH3             CH2OH          
 CH3O            CH4             CH3OH           CH3OOH          COOH           
 *C2             C2H             C2H2,acetylene  C2H2,vinylidene CH2CO,ketene   
 O(CH)2O         HO(CO)2OH       C2H3,vinyl      CH3CO,acetyl    C2H4           
 C2H4O,ethylen-o CH3CHO,ethanal  CH3COOH         OHCH2COOH       C2H5           
 C2H6            C2H5OH          CH3OCH3         CH3O2CH3        C2O            
 *C3             C3H3,1-propynl  C3H3,2-propynl  C3H4,allene     C3H4,propyne   
 C3H4,cyclo-     C3H5,allyl      C3H6,propylene  C3H6,cyclo-     C3H6O,propylox 
 C3H6O,acetone   C3H6O,propanal  C3H7,n-propyl   C3H7,i-propyl   C3H8           
 C3H8O,1propanol C3H8O,2propanol C3O2            *C4             C4H2,butadiyne 
 C4H4,1,3-cyclo- C4H6,butadiene  C4H6,1butyne    C4H6,2butyne    C4H6,cyclo-    
 C4H8,1-butene   C4H8,cis2-buten C4H8,tr2-butene C4H8,isobutene  C4H8,cyclo-    
 (CH3COOH)2      C4H9,n-butyl    C4H9,i-butyl    C4H9,s-butyl    C4H9,t-butyl   
 C4H10,n-butane  C4H10,isobutane *C5             C5H6,1,3cyclo-  C5H8,cyclo-    
 C5H10,1-pentene C5H10,cyclo-    C5H11,pentyl    C5H11,t-pentyl  C5H12,n-pentane
 C5H12,i-pentane CH3C(CH3)2CH3   C6H2            C6H5,phenyl     C6H5O,phenoxy  
 C6H6            C6H5OH,phenol   C6H10,cyclo-    C6H12,1-hexene  C6H12,cyclo-   
 C6H13,n-hexyl   C6H14,n-hexane  C7H7,benzyl     C7H8            C7H8O,cresol-mx
 C7H14,1-heptene C7H15,n-heptyl  C7H16,n-heptane C7H16,2-methylh C8H8,styrene   
 C8H10,ethylbenz C8H16,1-octene  C8H17,n-octyl   C8H18,n-octane  C8H18,isooctane
 C9H19,n-nonyl   C10H8,naphthale C10H21,n-decyl  C12H9,o-bipheny C12H10,biphenyl
 HCCO            HCHO,formaldehy HCOOH           H2O2            (HCOOH)2       
 O3              C(gr)           H2O(cr)         H2O(L)         

 NOTE. WEIGHT FRACTION OF FUEL IN TOTAL FUELS AND OF OXIDANT IN TOTAL OXIDANTS






 WARNING!!  ASSIGNED pip =   0.00000 IS NOT PERMITTED
 TO BE LESS THAN  Pinj/Pc =  1.00217. POINT OMITTED (ROCKET)





              THEORETICAL ROCKET PERFORMANCE ASSUMING EQUILIBRIUM

            COMPOSITION DURING EXPANSION FROM FINITE AREA COMBUSTOR

 Pin =   199.4 PSIA
 Ac/At = 13.6466      Pinj/Pinf =  1.001085
 CASE =                

             REACTANT                    WT FRACTION      ENERGY      TEMP
                                          (SEE NOTE)     KJ/KG-MOL      K  
 OXIDANT     O2                           0.9821774      1436.063    346.800
 OXIDANT     H2O                          0.0106935   -240185.810    346.800
 OXIDANT     CO2                          0.0071290   -391650.886    346.800
 FUEL        PMMA                         1.0000000   -442140.000    293.150

 O/F=    1.30248  %FUEL= 43.431406  R,EQ.RATIO= 1.394584  PHI,EQ.RATIO= 1.499066

                 INJECTOR  COMB END  THROAT
 Pinj/P            1.0000   1.0022   1.7342
 P, BAR            13.750   13.720   7.9287
 T, K             3235.47  3235.02  3067.06
 RHO, KG/CU M    1.2368 0 1.2343 0 7.6132-1
 H, KJ/KG        -2009.66 -2010.87 -2601.02
 U, KJ/KG        -3121.43 -3122.47 -3642.47
 G, KJ/KG        -38445.9 -38443.2 -37141.8
 S, KJ/(KG)(K)    11.2615  11.2619  11.2619

 M, (1/n)          24.197   24.197   24.486
 (dLV/dLP)t      -1.02614 -1.02614 -1.01976
 (dLV/dLT)p        1.5096   1.5095   1.4066
 Cp, KJ/(KG)(K)    5.4079   5.4078   4.8262
 GAMMAs            1.1346   1.1346   1.1357
 SON VEL,M/SEC     1123.1   1123.0   1087.5
 MACH NUMBER        0.000    0.044    1.000

 PERFORMANCE PARAMETERS

 Ae/At                      13.648   1.0000
 CSTAR, M/SEC               1658.9   1658.9
 CF                         0.0296   0.6556
 Ivac, M/SEC               22665.0   2045.2
 Isp, M/SEC                   49.2   1087.5


 MOLE FRACTIONS

 *CO              0.36153  0.36152  0.35675
 *CO2             0.16552  0.16553  0.17660
 *H               0.02453  0.02453  0.02020
 HCO              0.00001  0.00001  0.00000
 HO2              0.00002  0.00002  0.00001
 *H2              0.08643  0.08643  0.08641
 H2O              0.31064  0.31065  0.32237
 *O               0.00584  0.00584  0.00372
 *OH              0.03729  0.03728  0.02846
 *O2              0.00819  0.00818  0.00547

  * THERMODYNAMIC PROPERTIES FITTED TO 20000.K

    PRODUCTS WHICH WERE CONSIDERED BUT WHOSE MOLE FRACTIONS
    WERE LESS THAN 5.000000E-06 FOR ALL ASSIGNED CONDITIONS

 *C              *CH             CH2             CH3             CH2OH          
 CH3O            CH4             CH3OH           CH3OOH          COOH           
 *C2             C2H             C2H2,acetylene  C2H2,vinylidene CH2CO,ketene   
 O(CH)2O         HO(CO)2OH       C2H3,vinyl      CH3CO,acetyl    C2H4           
 C2H4O,ethylen-o CH3CHO,ethanal  CH3COOH         OHCH2COOH       C2H5           
 C2H6            C2H5OH          CH3OCH3         CH3O2CH3        C2O            
 *C3             C3H3,1-propynl  C3H3,2-propynl  C3H4,allene     C3H4,propyne   
 C3H4,cyclo-     C3H5,allyl      C3H6,propylene  C3H6,cyclo-     C3H6O,propylox 
 C3H6O,acetone   C3H6O,propanal  C3H7,n-propyl   C3H7,i-propyl   C3H8           
 C3H8O,1propanol C3H8O,2propanol C3O2            *C4             C4H2,butadiyne 
 C4H4,1,3-cyclo- C4H6,butadiene  C4H6,1butyne    C4H6,2butyne    C4H6,cyclo-    
 C4H8,1-butene   C4H8,cis2-buten C4H8,tr2-butene C4H8,isobutene  C4H8,cyclo-    
 (CH3COOH)2      C4H9,n-butyl    C4H9,i-butyl    C4H9,s-butyl    C4H9,t-butyl   
 C4H10,n-butane  C4H10,isobutane *C5             C5H6,1,3cyclo-  C5H8,cyclo-    
 C5H10,1-pentene C5H10,cyclo-    C5H11,pentyl    C5H11,t-pentyl  C5H12,n-pentane
 C5H12,i-pentane CH3C(CH3)2CH3   C6H2            C6H5,phenyl     C6H5O,phenoxy  
 C6H6            C6H5OH,phenol   C6H10,cyclo-    C6H12,1-hexene  C6H12,cyclo-   
 C6H13,n-hexyl   C6H14,n-hexane  C7H7,benzyl     C7H8            C7H8O,cresol-mx
 C7H14,1-heptene C7H15,n-heptyl  C7H16,n-heptane C7H16,2-methylh C8H8,styrene   
 C8H10,ethylbenz C8H16,1-octene  C8H17,n-octyl   C8H18,n-octane  C8H18,isooctane
 C9H19,n-nonyl   C10H8,naphthale C10H21,n-decyl  C12H9,o-bipheny C12H10,biphenyl
 HCCO            HCHO,formaldehy HCOOH           H2O2            (HCOOH)2       
 O3              C(gr)           H2O(cr)         H2O(L)         

 NOTE. WEIGHT FRACTION OF FUEL IN TOTAL FUELS AND OF OXIDANT IN TOTAL OXIDANTS






 WARNING!!  ASSIGNED pip =   0.00000 IS NOT PERMITTED
 TO BE LESS THAN  Pinj/Pc =  1.00217. POINT OMITTED (ROCKET)





              THEORETICAL ROCKET PERFORMANCE ASSUMING EQUILIBRIUM

            COMPOSITION DURING EXPANSION FROM FINITE AREA COMBUSTOR

 Pin =   199.4 PSIA
 Ac/At = 13.6466      Pinj/Pinf =  1.001085
 CASE =                

             REACTANT                    WT FRACTION      ENERGY      TEMP
                                          (SEE NOTE)     KJ/KG-MOL      K  
 OXIDANT     O2                           0.9821774      1436.063    346.800
 OXIDANT     H2O                          0.0106935   -240185.810    346.800
 OXIDANT     CO2                          0.0071290   -391650.886    346.800
 FUEL        PMMA                         1.0000000   -442140.000    293.150

 O/F=    1.30248  %FUEL= 43.431406  R,EQ.RATIO= 1.394584  PHI,EQ.RATIO= 1.499066

                 INJECTOR  COMB END  THROAT
 Pinj/P            1.0000   1.0022   1.7342
 P, BAR            13.750   13.720   7.9287
 T, K             3235.47  3235.02  3067.06
 RHO, KG/CU M    1.2368 0 1.2343 0 7.6132-1
 H, KJ/KG        -2009.66 -2010.87 -2601.02
 U, KJ/KG        -3121.43 -3122.47 -3642.47
 G, KJ/KG        -38445.9 -38443.2 -37141.8
 S, KJ/(KG)(K)    11.2615  11.2619  11.2619

 M, (1/n)          24.197   24.197   24.486
 (dLV/dLP)t      -1.02614 -1.02614 -1.01976
 (dLV/dLT)p        1.5096   1.5095   1.4066
 Cp, KJ/(KG)(K)    5.4079   5.4078   4.8262
 GAMMAs            1.1346   1.1346   1.1357
 SON VEL,M/SEC     1123.1   1123.0   1087.5
 MACH NUMBER        0.000    0.044    1.000

 PERFORMANCE PARAMETERS

 Ae/At                      13.648   1.0000
 CSTAR, M/SEC               1658.9   1658.9
 CF                         0.0296   0.6556
 Ivac, M/SEC               22665.0   2045.2
 Isp, M/SEC                   49.2   1087.5


 MOLE FRACTIONS

 *CO              0.36153  0.36152  0.35675
 *CO2             0.16552  0.16553  0.17660
 *H               0.02453  0.02453  0.02020
 HCO              0.00001  0.00001  0.00000
 HO2              0.00002  0.00002  0.00001
 *H2              0.08643  0.08643  0.08641
 H2O              0.31064  0.31065  0.32237
 *O               0.00584  0.00584  0.00372
 *OH              0.03729  0.03728  0.02846
 *O2              0.00819  0.00818  0.00547

  * THERMODYNAMIC PROPERTIES FITTED TO 20000.K

    PRODUCTS WHICH WERE CONSIDERED BUT WHOSE MOLE FRACTIONS
    WERE LESS THAN 5.000000E-06 FOR ALL ASSIGNED CONDITIONS

 *C              *CH             CH2             CH3             CH2OH          
 CH3O            CH4             CH3OH           CH3OOH          COOH           
 *C2             C2H             C2H2,acetylene  C2H2,vinylidene CH2CO,ketene   
 O(CH)2O         HO(CO)2OH       C2H3,vinyl      CH3CO,acetyl    C2H4           
 C2H4O,ethylen-o CH3CHO,ethanal  CH3COOH         OHCH2COOH       C2H5           
 C2H6            C2H5OH          CH3OCH3         CH3O2CH3        C2O            
 *C3             C3H3,1-propynl  C3H3,2-propynl  C3H4,allene     C3H4,propyne   
 C3H4,cyclo-     C3H5,allyl      C3H6,propylene  C3H6,cyclo-     C3H6O,propylox 
 C3H6O,acetone   C3H6O,propanal  C3H7,n-propyl   C3H7,i-propyl   C3H8           
 C3H8O,1propanol C3H8O,2propanol C3O2            *C4             C4H2,butadiyne 
 C4H4,1,3-cyclo- C4H6,butadiene  C4H6,1butyne    C4H6,2butyne    C4H6,cyclo-    
 C4H8,1-butene   C4H8,cis2-buten C4H8,tr2-butene C4H8,isobutene  C4H8,cyclo-    
 (CH3COOH)2      C4H9,n-butyl    C4H9,i-butyl    C4H9,s-butyl    C4H9,t-butyl   
 C4H10,n-butane  C4H10,isobutane *C5             C5H6,1,3cyclo-  C5H8,cyclo-    
 C5H10,1-pentene C5H10,cyclo-    C5H11,pentyl    C5H11,t-pentyl  C5H12,n-pentane
 C5H12,i-pentane CH3C(CH3)2CH3   C6H2            C6H5,phenyl     C6H5O,phenoxy  
 C6H6            C6H5OH,phenol   C6H10,cyclo-    C6H12,1-hexene  C6H12,cyclo-   
 C6H13,n-hexyl   C6H14,n-hexane  C7H7,benzyl     C7H8            C7H8O,cresol-mx
 C7H14,1-heptene C7H15,n-heptyl  C7H16,n-heptane C7H16,2-methylh C8H8,styrene   
 C8H10,ethylbenz C8H16,1-octene  C8H17,n-octyl   C8H18,n-octane  C8H18,isooctane
 C9H19,n-nonyl   C10H8,naphthale C10H21,n-decyl  C12H9,o-bipheny C12H10,biphenyl
 HCCO            HCHO,formaldehy HCOOH           H2O2            (HCOOH)2       
 O3              C(gr)           H2O(cr)         H2O(L)         

 NOTE. WEIGHT FRACTION OF FUEL IN TOTAL FUELS AND OF OXIDANT IN TOTAL OXIDANTS






 WARNING!!  ASSIGNED pip =   0.00000 IS NOT PERMITTED
 TO BE LESS THAN  Pinj/Pc =  1.00217. POINT OMITTED (ROCKET)





              THEORETICAL ROCKET PERFORMANCE ASSUMING EQUILIBRIUM

            COMPOSITION DURING EXPANSION FROM FINITE AREA COMBUSTOR

 Pin =   199.4 PSIA
 Ac/At = 13.6466      Pinj/Pinf =  1.001085
 CASE =                

             REACTANT                    WT FRACTION      ENERGY      TEMP
                                          (SEE NOTE)     KJ/KG-MOL      K  
 OXIDANT     O2                           0.9821774      1436.063    346.800
 OXIDANT     H2O                          0.0106935   -240185.810    346.800
 OXIDANT     CO2                          0.0071290   -391650.886    346.800
 FUEL        PMMA                         1.0000000   -442140.000    293.150

 O/F=    1.30248  %FUEL= 43.431406  R,EQ.RATIO= 1.394584  PHI,EQ.RATIO= 1.499066

                 INJECTOR  COMB END  THROAT
 Pinj/P            1.0000   1.0022   1.7342
 P, BAR            13.750   13.720   7.9287
 T, K             3235.47  3235.02  3067.06
 RHO, KG/CU M    1.2368 0 1.2343 0 7.6132-1
 H, KJ/KG        -2009.66 -2010.87 -2601.02
 U, KJ/KG        -3121.43 -3122.47 -3642.47
 G, KJ/KG        -38445.9 -38443.2 -37141.8
 S, KJ/(KG)(K)    11.2615  11.2619  11.2619

 M, (1/n)          24.197   24.197   24.486
 (dLV/dLP)t      -1.02614 -1.02614 -1.01976
 (dLV/dLT)p        1.5096   1.5095   1.4066
 Cp, KJ/(KG)(K)    5.4079   5.4078   4.8262
 GAMMAs            1.1346   1.1346   1.1357
 SON VEL,M/SEC     1123.1   1123.0   1087.5
 MACH NUMBER        0.000    0.044    1.000

 PERFORMANCE PARAMETERS

 Ae/At                      13.648   1.0000
 CSTAR, M/SEC               1658.9   1658.9
 CF                         0.0296   0.6556
 Ivac, M/SEC               22665.0   2045.2
 Isp, M/SEC                   49.2   1087.5


 MOLE FRACTIONS

 *CO              0.36153  0.36152  0.35675
 *CO2             0.16552  0.16553  0.17660
 *H               0.02453  0.02453  0.02020
 HCO              0.00001  0.00001  0.00000
 HO2              0.00002  0.00002  0.00001
 *H2              0.08643  0.08643  0.08641
 H2O              0.31064  0.31065  0.32237
 *O               0.00584  0.00584  0.00372
 *OH              0.03729  0.03728  0.02846
 *O2              0.00819  0.00818  0.00547

  * THERMODYNAMIC PROPERTIES FITTED TO 20000.K

    PRODUCTS WHICH WERE CONSIDERED BUT WHOSE MOLE FRACTIONS
    WERE LESS THAN 5.000000E-06 FOR ALL ASSIGNED CONDITIONS

 *C              *CH             CH2             CH3             CH2OH          
 CH3O            CH4             CH3OH           CH3OOH          COOH           
 *C2             C2H             C2H2,acetylene  C2H2,vinylidene CH2CO,ketene   
 O(CH)2O         HO(CO)2OH       C2H3,vinyl      CH3CO,acetyl    C2H4           
 C2H4O,ethylen-o CH3CHO,ethanal  CH3COOH         OHCH2COOH       C2H5           
 C2H6            C2H5OH          CH3OCH3         CH3O2CH3        C2O            
 *C3             C3H3,1-propynl  C3H3,2-propynl  C3H4,allene     C3H4,propyne   
 C3H4,cyclo-     C3H5,allyl      C3H6,propylene  C3H6,cyclo-     C3H6O,propylox 
 C3H6O,acetone   C3H6O,propanal  C3H7,n-propyl   C3H7,i-propyl   C3H8           
 C3H8O,1propanol C3H8O,2propanol C3O2            *C4             C4H2,butadiyne 
 C4H4,1,3-cyclo- C4H6,butadiene  C4H6,1butyne    C4H6,2butyne    C4H6,cyclo-    
 C4H8,1-butene   C4H8,cis2-buten C4H8,tr2-butene C4H8,isobutene  C4H8,cyclo-    
 (CH3COOH)2      C4H9,n-butyl    C4H9,i-butyl    C4H9,s-butyl    C4H9,t-butyl   
 C4H10,n-butane  C4H10,isobutane *C5             C5H6,1,3cyclo-  C5H8,cyclo-    
 C5H10,1-pentene C5H10,cyclo-    C5H11,pentyl    C5H11,t-pentyl  C5H12,n-pentane
 C5H12,i-pentane CH3C(CH3)2CH3   C6H2            C6H5,phenyl     C6H5O,phenoxy  
 C6H6            C6H5OH,phenol   C6H10,cyclo-    C6H12,1-hexene  C6H12,cyclo-   
 C6H13,n-hexyl   C6H14,n-hexane  C7H7,benzyl     C7H8            C7H8O,cresol-mx
 C7H14,1-heptene C7H15,n-heptyl  C7H16,n-heptane C7H16,2-methylh C8H8,styrene   
 C8H10,ethylbenz C8H16,1-octene  C8H17,n-octyl   C8H18,n-octane  C8H18,isooctane
 C9H19,n-nonyl   C10H8,naphthale C10H21,n-decyl  C12H9,o-bipheny C12H10,biphenyl
 HCCO            HCHO,formaldehy HCOOH           H2O2            (HCOOH)2       
 O3              C(gr)           H2O(cr)         H2O(L)         

 NOTE. WEIGHT FRACTION OF FUEL IN TOTAL FUELS AND OF OXIDANT IN TOTAL OXIDANTS






 WARNING!!  ASSIGNED pip =   0.00000 IS NOT PERMITTED
 TO BE LESS THAN  Pinj/Pc =  1.00217. POINT OMITTED (ROCKET)





              THEORETICAL ROCKET PERFORMANCE ASSUMING EQUILIBRIUM

            COMPOSITION DURING EXPANSION FROM FINITE AREA COMBUSTOR

 Pin =   199.4 PSIA
 Ac/At = 13.6466      Pinj/Pinf =  1.001085
 CASE =                

             REACTANT                    WT FRACTION      ENERGY      TEMP
                                          (SEE NOTE)     KJ/KG-MOL      K  
 OXIDANT     O2                           0.9821774      1436.063    346.800
 OXIDANT     H2O                          0.0106935   -240185.810    346.800
 OXIDANT     CO2                          0.0071290   -391650.886    346.800
 FUEL        PMMA                         1.0000000   -442140.000    293.150

 O/F=    1.30248  %FUEL= 43.431406  R,EQ.RATIO= 1.394584  PHI,EQ.RATIO= 1.499066

                 INJECTOR  COMB END  THROAT
 Pinj/P            1.0000   1.0022   1.7342
 P, BAR            13.750   13.720   7.9287
 T, K             3235.47  3235.02  3067.06
 RHO, KG/CU M    1.2368 0 1.2343 0 7.6132-1
 H, KJ/KG        -2009.66 -2010.87 -2601.02
 U, KJ/KG        -3121.43 -3122.47 -3642.47
 G, KJ/KG        -38445.9 -38443.2 -37141.8
 S, KJ/(KG)(K)    11.2615  11.2619  11.2619

 M, (1/n)          24.197   24.197   24.486
 (dLV/dLP)t      -1.02614 -1.02614 -1.01976
 (dLV/dLT)p        1.5096   1.5095   1.4066
 Cp, KJ/(KG)(K)    5.4079   5.4078   4.8262
 GAMMAs            1.1346   1.1346   1.1357
 SON VEL,M/SEC     1123.1   1123.0   1087.5
 MACH NUMBER        0.000    0.044    1.000

 PERFORMANCE PARAMETERS

 Ae/At                      13.648   1.0000
 CSTAR, M/SEC               1658.9   1658.9
 CF                         0.0296   0.6556
 Ivac, M/SEC               22665.0   2045.2
 Isp, M/SEC                   49.2   1087.5


 MOLE FRACTIONS

 *CO              0.36153  0.36152  0.35675
 *CO2             0.16552  0.16553  0.17660
 *H               0.02453  0.02453  0.02020
 HCO              0.00001  0.00001  0.00000
 HO2              0.00002  0.00002  0.00001
 *H2              0.08643  0.08643  0.08641
 H2O              0.31064  0.31065  0.32237
 *O               0.00584  0.00584  0.00372
 *OH              0.03729  0.03728  0.02846
 *O2              0.00819  0.00818  0.00547

  * THERMODYNAMIC PROPERTIES FITTED TO 20000.K

    PRODUCTS WHICH WERE CONSIDERED BUT WHOSE MOLE FRACTIONS
    WERE LESS THAN 5.000000E-06 FOR ALL ASSIGNED CONDITIONS

 *C              *CH             CH2             CH3             CH2OH          
 CH3O            CH4             CH3OH           CH3OOH          COOH           
 *C2             C2H             C2H2,acetylene  C2H2,vinylidene CH2CO,ketene   
 O(CH)2O         HO(CO)2OH       C2H3,vinyl      CH3CO,acetyl    C2H4           
 C2H4O,ethylen-o CH3CHO,ethanal  CH3COOH         OHCH2COOH       C2H5           
 C2H6            C2H5OH          CH3OCH3         CH3O2CH3        C2O            
 *C3             C3H3,1-propynl  C3H3,2-propynl  C3H4,allene     C3H4,propyne   
 C3H4,cyclo-     C3H5,allyl      C3H6,propylene  C3H6,cyclo-     C3H6O,propylox 
 C3H6O,acetone   C3H6O,propanal  C3H7,n-propyl   C3H7,i-propyl   C3H8           
 C3H8O,1propanol C3H8O,2propanol C3O2            *C4             C4H2,butadiyne 
 C4H4,1,3-cyclo- C4H6,butadiene  C4H6,1butyne    C4H6,2butyne    C4H6,cyclo-    
 C4H8,1-butene   C4H8,cis2-buten C4H8,tr2-butene C4H8,isobutene  C4H8,cyclo-    
 (CH3COOH)2      C4H9,n-butyl    C4H9,i-butyl    C4H9,s-butyl    C4H9,t-butyl   
 C4H10,n-butane  C4H10,isobutane *C5             C5H6,1,3cyclo-  C5H8,cyclo-    
 C5H10,1-pentene C5H10,cyclo-    C5H11,pentyl    C5H11,t-pentyl  C5H12,n-pentane
 C5H12,i-pentane CH3C(CH3)2CH3   C6H2            C6H5,phenyl     C6H5O,phenoxy  
 C6H6            C6H5OH,phenol   C6H10,cyclo-    C6H12,1-hexene  C6H12,cyclo-   
 C6H13,n-hexyl   C6H14,n-hexane  C7H7,benzyl     C7H8            C7H8O,cresol-mx
 C7H14,1-heptene C7H15,n-heptyl  C7H16,n-heptane C7H16,2-methylh C8H8,styrene   
 C8H10,ethylbenz C8H16,1-octene  C8H17,n-octyl   C8H18,n-octane  C8H18,isooctane
 C9H19,n-nonyl   C10H8,naphthale C10H21,n-decyl  C12H9,o-bipheny C12H10,biphenyl
 HCCO            HCHO,formaldehy HCOOH           H2O2            (HCOOH)2       
 O3              C(gr)           H2O(cr)         H2O(L)         

 NOTE. WEIGHT FRACTION OF FUEL IN TOTAL FUELS AND OF OXIDANT IN TOTAL OXIDANTS






 WARNING!!  ASSIGNED pip =   0.00000 IS NOT PERMITTED
 TO BE LESS THAN  Pinj/Pc =  1.00217. POINT OMITTED (ROCKET)





              THEORETICAL ROCKET PERFORMANCE ASSUMING EQUILIBRIUM

            COMPOSITION DURING EXPANSION FROM FINITE AREA COMBUSTOR

 Pin =   199.4 PSIA
 Ac/At = 13.6466      Pinj/Pinf =  1.001085
 CASE =                

             REACTANT                    WT FRACTION      ENERGY      TEMP
                                          (SEE NOTE)     KJ/KG-MOL      K  
 OXIDANT     O2                           0.9821774      1436.063    346.800
 OXIDANT     H2O                          0.0106935   -240185.810    346.800
 OXIDANT     CO2                          0.0071290   -391650.886    346.800
 FUEL        PMMA                         1.0000000   -442140.000    293.150

 O/F=    1.30248  %FUEL= 43.431406  R,EQ.RATIO= 1.394584  PHI,EQ.RATIO= 1.499066

                 INJECTOR  COMB END  THROAT
 Pinj/P            1.0000   1.0022   1.7342
 P, BAR            13.750   13.720   7.9287
 T, K             3235.47  3235.02  3067.06
 RHO, KG/CU M    1.2368 0 1.2343 0 7.6132-1
 H, KJ/KG        -2009.66 -2010.87 -2601.02
 U, KJ/KG        -3121.43 -3122.47 -3642.47
 G, KJ/KG        -38445.9 -38443.2 -37141.8
 S, KJ/(KG)(K)    11.2615  11.2619  11.2619

 M, (1/n)          24.197   24.197   24.486
 (dLV/dLP)t      -1.02614 -1.02614 -1.01976
 (dLV/dLT)p        1.5096   1.5095   1.4066
 Cp, KJ/(KG)(K)    5.4079   5.4078   4.8262
 GAMMAs            1.1346   1.1346   1.1357
 SON VEL,M/SEC     1123.1   1123.0   1087.5
 MACH NUMBER        0.000    0.044    1.000

 PERFORMANCE PARAMETERS

 Ae/At                      13.648   1.0000
 CSTAR, M/SEC               1658.9   1658.9
 CF                         0.0296   0.6556
 Ivac, M/SEC               22665.0   2045.2
 Isp, M/SEC                   49.2   1087.5


 MOLE FRACTIONS

 *CO              0.36153  0.36152  0.35675
 *CO2             0.16552  0.16553  0.17660
 *H               0.02453  0.02453  0.02020
 HCO              0.00001  0.00001  0.00000
 HO2              0.00002  0.00002  0.00001
 *H2              0.08643  0.08643  0.08641
 H2O              0.31064  0.31065  0.32237
 *O               0.00584  0.00584  0.00372
 *OH              0.03729  0.03728  0.02846
 *O2              0.00819  0.00818  0.00547

  * THERMODYNAMIC PROPERTIES FITTED TO 20000.K

    PRODUCTS WHICH WERE CONSIDERED BUT WHOSE MOLE FRACTIONS
    WERE LESS THAN 5.000000E-06 FOR ALL ASSIGNED CONDITIONS

 *C              *CH             CH2             CH3             CH2OH          
 CH3O            CH4             CH3OH           CH3OOH          COOH           
 *C2             C2H             C2H2,acetylene  C2H2,vinylidene CH2CO,ketene   
 O(CH)2O         HO(CO)2OH       C2H3,vinyl      CH3CO,acetyl    C2H4           
 C2H4O,ethylen-o CH3CHO,ethanal  CH3COOH         OHCH2COOH       C2H5           
 C2H6            C2H5OH          CH3OCH3         CH3O2CH3        C2O            
 *C3             C3H3,1-propynl  C3H3,2-propynl  C3H4,allene     C3H4,propyne   
 C3H4,cyclo-     C3H5,allyl      C3H6,propylene  C3H6,cyclo-     C3H6O,propylox 
 C3H6O,acetone   C3H6O,propanal  C3H7,n-propyl   C3H7,i-propyl   C3H8           
 C3H8O,1propanol C3H8O,2propanol C3O2            *C4             C4H2,butadiyne 
 C4H4,1,3-cyclo- C4H6,butadiene  C4H6,1butyne    C4H6,2butyne    C4H6,cyclo-    
 C4H8,1-butene   C4H8,cis2-buten C4H8,tr2-butene C4H8,isobutene  C4H8,cyclo-    
 (CH3COOH)2      C4H9,n-butyl    C4H9,i-butyl    C4H9,s-butyl    C4H9,t-butyl   
 C4H10,n-butane  C4H10,isobutane *C5             C5H6,1,3cyclo-  C5H8,cyclo-    
 C5H10,1-pentene C5H10,cyclo-    C5H11,pentyl    C5H11,t-pentyl  C5H12,n-pentane
 C5H12,i-pentane CH3C(CH3)2CH3   C6H2            C6H5,phenyl     C6H5O,phenoxy  
 C6H6            C6H5OH,phenol   C6H10,cyclo-    C6H12,1-hexene  C6H12,cyclo-   
 C6H13,n-hexyl   C6H14,n-hexane  C7H7,benzyl     C7H8            C7H8O,cresol-mx
 C7H14,1-heptene C7H15,n-heptyl  C7H16,n-heptane C7H16,2-methylh C8H8,styrene   
 C8H10,ethylbenz C8H16,1-octene  C8H17,n-octyl   C8H18,n-octane  C8H18,isooctane
 C9H19,n-nonyl   C10H8,naphthale C10H21,n-decyl  C12H9,o-bipheny C12H10,biphenyl
 HCCO            HCHO,formaldehy HCOOH           H2O2            (HCOOH)2       
 O3              C(gr)           H2O(cr)         H2O(L)         

 NOTE. WEIGHT FRACTION OF FUEL IN TOTAL FUELS AND OF OXIDANT IN TOTAL OXIDANTS






 WARNING!!  ASSIGNED pip =   0.00000 IS NOT PERMITTED
 TO BE LESS THAN  Pinj/Pc =  1.00217. POINT OMITTED (ROCKET)





              THEORETICAL ROCKET PERFORMANCE ASSUMING EQUILIBRIUM

            COMPOSITION DURING EXPANSION FROM FINITE AREA COMBUSTOR

 Pin =   199.4 PSIA
 Ac/At = 13.6466      Pinj/Pinf =  1.001085
 CASE =                

             REACTANT                    WT FRACTION      ENERGY      TEMP
                                          (SEE NOTE)     KJ/KG-MOL      K  
 OXIDANT     O2                           0.9821774      1436.063    346.800
 OXIDANT     H2O                          0.0106935   -240185.810    346.800
 OXIDANT     CO2                          0.0071290   -391650.886    346.800
 FUEL        PMMA                         1.0000000   -442140.000    293.150

 O/F=    1.30248  %FUEL= 43.431406  R,EQ.RATIO= 1.394584  PHI,EQ.RATIO= 1.499066

                 INJECTOR  COMB END  THROAT
 Pinj/P            1.0000   1.0022   1.7342
 P, BAR            13.750   13.720   7.9287
 T, K             3235.47  3235.02  3067.06
 RHO, KG/CU M    1.2368 0 1.2343 0 7.6132-1
 H, KJ/KG        -2009.66 -2010.87 -2601.02
 U, KJ/KG        -3121.43 -3122.47 -3642.47
 G, KJ/KG        -38445.9 -38443.2 -37141.8
 S, KJ/(KG)(K)    11.2615  11.2619  11.2619

 M, (1/n)          24.197   24.197   24.486
 (dLV/dLP)t      -1.02614 -1.02614 -1.01976
 (dLV/dLT)p        1.5096   1.5095   1.4066
 Cp, KJ/(KG)(K)    5.4079   5.4078   4.8262
 GAMMAs            1.1346   1.1346   1.1357
 SON VEL,M/SEC     1123.1   1123.0   1087.5
 MACH NUMBER        0.000    0.044    1.000

 PERFORMANCE PARAMETERS

 Ae/At                      13.648   1.0000
 CSTAR, M/SEC               1658.9   1658.9
 CF                         0.0296   0.6556
 Ivac, M/SEC               22665.0   2045.2
 Isp, M/SEC                   49.2   1087.5


 MOLE FRACTIONS

 *CO              0.36153  0.36152  0.35675
 *CO2             0.16552  0.16553  0.17660
 *H               0.02453  0.02453  0.02020
 HCO              0.00001  0.00001  0.00000
 HO2              0.00002  0.00002  0.00001
 *H2              0.08643  0.08643  0.08641
 H2O              0.31064  0.31065  0.32237
 *O               0.00584  0.00584  0.00372
 *OH              0.03729  0.03728  0.02846
 *O2              0.00819  0.00818  0.00547

  * THERMODYNAMIC PROPERTIES FITTED TO 20000.K

    PRODUCTS WHICH WERE CONSIDERED BUT WHOSE MOLE FRACTIONS
    WERE LESS THAN 5.000000E-06 FOR ALL ASSIGNED CONDITIONS

 *C              *CH             CH2             CH3             CH2OH          
 CH3O            CH4             CH3OH           CH3OOH          COOH           
 *C2             C2H             C2H2,acetylene  C2H2,vinylidene CH2CO,ketene   
 O(CH)2O         HO(CO)2OH       C2H3,vinyl      CH3CO,acetyl    C2H4           
 C2H4O,ethylen-o CH3CHO,ethanal  CH3COOH         OHCH2COOH       C2H5           
 C2H6            C2H5OH          CH3OCH3         CH3O2CH3        C2O            
 *C3             C3H3,1-propynl  C3H3,2-propynl  C3H4,allene     C3H4,propyne   
 C3H4,cyclo-     C3H5,allyl      C3H6,propylene  C3H6,cyclo-     C3H6O,propylox 
 C3H6O,acetone   C3H6O,propanal  C3H7,n-propyl   C3H7,i-propyl   C3H8           
 C3H8O,1propanol C3H8O,2propanol C3O2            *C4             C4H2,butadiyne 
 C4H4,1,3-cyclo- C4H6,butadiene  C4H6,1butyne    C4H6,2butyne    C4H6,cyclo-    
 C4H8,1-butene   C4H8,cis2-buten C4H8,tr2-butene C4H8,isobutene  C4H8,cyclo-    
 (CH3COOH)2      C4H9,n-butyl    C4H9,i-butyl    C4H9,s-butyl    C4H9,t-butyl   
 C4H10,n-butane  C4H10,isobutane *C5             C5H6,1,3cyclo-  C5H8,cyclo-    
 C5H10,1-pentene C5H10,cyclo-    C5H11,pentyl    C5H11,t-pentyl  C5H12,n-pentane
 C5H12,i-pentane CH3C(CH3)2CH3   C6H2            C6H5,phenyl     C6H5O,phenoxy  
 C6H6            C6H5OH,phenol   C6H10,cyclo-    C6H12,1-hexene  C6H12,cyclo-   
 C6H13,n-hexyl   C6H14,n-hexane  C7H7,benzyl     C7H8            C7H8O,cresol-mx
 C7H14,1-heptene C7H15,n-heptyl  C7H16,n-heptane C7H16,2-methylh C8H8,styrene   
 C8H10,ethylbenz C8H16,1-octene  C8H17,n-octyl   C8H18,n-octane  C8H18,isooctane
 C9H19,n-nonyl   C10H8,naphthale C10H21,n-decyl  C12H9,o-bipheny C12H10,biphenyl
 HCCO            HCHO,formaldehy HCOOH           H2O2            (HCOOH)2       
 O3              C(gr)           H2O(cr)         H2O(L)         

 NOTE. WEIGHT FRACTION OF FUEL IN TOTAL FUELS AND OF OXIDANT IN TOTAL OXIDANTS





   4    5    2413.034     -19.001     -11.216     -15.936





              THEORETICAL ROCKET PERFORMANCE ASSUMING EQUILIBRIUM

            COMPOSITION DURING EXPANSION FROM FINITE AREA COMBUSTOR

 Pin =   199.4 PSIA
 Ac/At = 13.6466      Pinj/Pinf =  1.001085
 CASE =                

             REACTANT                    WT FRACTION      ENERGY      TEMP
                                          (SEE NOTE)     KJ/KG-MOL      K  
 OXIDANT     O2                           0.9821774      1436.063    346.800
 OXIDANT     H2O                          0.0106935   -240185.810    346.800
 OXIDANT     CO2                          0.0071290   -391650.886    346.800
 FUEL        PMMA                         1.0000000   -442140.000    293.150

 O/F=    1.30248  %FUEL= 43.431406  R,EQ.RATIO= 1.394584  PHI,EQ.RATIO= 1.499066

                 INJECTOR  COMB END  THROAT     EXIT
 Pinj/P            1.0000   1.0022   1.7342   13.647
 P, BAR            13.750   13.720   7.9287   1.0076
 T, K             3235.47  3235.02  3067.06  2413.03
 RHO, KG/CU M    1.2368 0 1.2343 0 7.6132-1 1.2661-1
 H, KJ/KG        -2009.66 -2010.87 -2601.02 -4494.30
 U, KJ/KG        -3121.43 -3122.47 -3642.47 -5290.09
 G, KJ/KG        -38445.9 -38443.2 -37141.8 -31669.6
 S, KJ/(KG)(K)    11.2615  11.2619  11.2619  11.2619

 M, (1/n)          24.197   24.197   24.486   25.212
 (dLV/dLP)t      -1.02614 -1.02614 -1.01976 -1.00259
 (dLV/dLT)p        1.5096   1.5095   1.4066   1.0659
 Cp, KJ/(KG)(K)    5.4079   5.4078   4.8262   2.4773
 GAMMAs            1.1346   1.1346   1.1357   1.1746
 SON VEL,M/SEC     1123.1   1123.0   1087.5    966.8
 MACH NUMBER        0.000    0.044    1.000    2.306

 PERFORMANCE PARAMETERS

 Ae/At                      13.648   1.0000   2.9334
 CSTAR, M/SEC               1658.9   1658.9   1658.9
 CF                         0.0296   0.6556   1.3438
 Ivac, M/SEC               22665.0   2045.2   2586.2
 Isp, M/SEC                   49.2   1087.5   2229.2


 MOLE FRACTIONS

 *CO              0.36153  0.36152  0.35675  0.34128
 *CO2             0.16552  0.16553  0.17660  0.20789
 *H               0.02453  0.02453  0.02020  0.00522
 HCO              0.00001  0.00001  0.00000  0.00000
 HO2              0.00002  0.00002  0.00001  0.00000
 *H2              0.08643  0.08643  0.08641  0.09552
 H2O              0.31064  0.31065  0.32237  0.34588
 *O               0.00584  0.00584  0.00372  0.00013
 *OH              0.03729  0.03728  0.02846  0.00390
 *O2              0.00819  0.00818  0.00547  0.00019

  * THERMODYNAMIC PROPERTIES FITTED TO 20000.K

    PRODUCTS WHICH WERE CONSIDERED BUT WHOSE MOLE FRACTIONS
    WERE LESS THAN 5.000000E-06 FOR ALL ASSIGNED CONDITIONS

 *C              *CH             CH2             CH3             CH2OH          
 CH3O            CH4             CH3OH           CH3OOH          COOH           
 *C2             C2H             C2H2,acetylene  C2H2,vinylidene CH2CO,ketene   
 O(CH)2O         HO(CO)2OH       C2H3,vinyl      CH3CO,acetyl    C2H4           
 C2H4O,ethylen-o CH3CHO,ethanal  CH3COOH         OHCH2COOH       C2H5           
 C2H6            C2H5OH          CH3OCH3         CH3O2CH3        C2O            
 *C3             C3H3,1-propynl  C3H3,2-propynl  C3H4,allene     C3H4,propyne   
 C3H4,cyclo-     C3H5,allyl      C3H6,propylene  C3H6,cyclo-     C3H6O,propylox 
 C3H6O,acetone   C3H6O,propanal  C3H7,n-propyl   C3H7,i-propyl   C3H8           
 C3H8O,1propanol C3H8O,2propanol C3O2            *C4             C4H2,butadiyne 
 C4H4,1,3-cyclo- C4H6,butadiene  C4H6,1butyne    C4H6,2butyne    C4H6,cyclo-    
 C4H8,1-butene   C4H8,cis2-buten C4H8,tr2-butene C4H8,isobutene  C4H8,cyclo-    
 (CH3COOH)2      C4H9,n-butyl    C4H9,i-butyl    C4H9,s-butyl    C4H9,t-butyl   
 C4H10,n-butane  C4H10,isobutane *C5             C5H6,1,3cyclo-  C5H8,cyclo-    
 C5H10,1-pentene C5H10,cyclo-    C5H11,pentyl    C5H11,t-pentyl  C5H12,n-pentane
 C5H12,i-pentane CH3C(CH3)2CH3   C6H2            C6H5,phenyl     C6H5O,phenoxy  
 C6H6            C6H5OH,phenol   C6H10,cyclo-    C6H12,1-hexene  C6H12,cyclo-   
 C6H13,n-hexyl   C6H14,n-hexane  C7H7,benzyl     C7H8            C7H8O,cresol-mx
 C7H14,1-heptene C7H15,n-heptyl  C7H16,n-heptane C7H16,2-methylh C8H8,styrene   
 C8H10,ethylbenz C8H16,1-octene  C8H17,n-octyl   C8H18,n-octane  C8H18,isooctane
 C9H19,n-nonyl   C10H8,naphthale C10H21,n-decyl  C12H9,o-bipheny C12H10,biphenyl
 HCCO            HCHO,formaldehy HCOOH           H2O2            (HCOOH)2       
 O3              C(gr)           H2O(cr)         H2O(L)         

 NOTE. WEIGHT FRACTION OF FUEL IN TOTAL FUELS AND OF OXIDANT IN TOTAL OXIDANTS



