
 *******************************************************************************

         NASA-GLENN CHEMICAL EQUILIBRIUM PROGRAM CEA2, MAY 21, 2004
                   BY  BONNIE MCBRIDE AND SANFORD GORDON
      REFS: NASA RP-1311, PART I, 1994 AND NASA RP-1311, PART II, 1996

 *******************************************************************************



 prob rocket fac p,bar=14.45,ac/at=13.8597313194,
 o/f=1.34149240966, pi/pe=1, eq
 react
 	oxid=O2  wt=0.982816944654	t,k=338.1
 	oxid=H2O wt=0.0103098332074	t,k=338.1
 	oxid=CO2 wt=0.00687322213828	t,k=338.1
 	fuel=PMMA  wt=100 t,k=293.15
 	h,kj/mol=-442.14  C 5 H 8 O 2
 end

 OPTIONS: TP=F  HP=F  SP=F  TV=F  UV=F  SV=F  DETN=F  SHOCK=F  REFL=F  INCD=F
 RKT=T  FROZ=F  EQL=T  IONS=F  SIUNIT=T  DEBUGF=F  SHKDBG=F  DETDBG=T  TRNSPT=F

 TRACE= 0.00E+00  S/R= 0.000000E+00  H/R= 0.000000E+00  U/R= 0.000000E+00

 Pc,BAR =    14.450000

 Pc/P =     1.0000

 SUBSONIC AREA RATIOS =

 SUPERSONIC AREA RATIOS =

 NFZ=  1  Mdot/Ac= 0.000000E+00  Ac/At= 1.385973E+01

    REACTANT          WT.FRAC   (ENERGY/R),K   TEMP,K  DENSITY
        EXPLODED FORMULA
 O: O2               0.982817   0.141697E+03   338.10  0.0000
          O  2.00000
 O: H2O              0.010310  -0.289229E+05   338.10  0.0000
          H  2.00000  O  1.00000
 O: CO2              0.006873  -0.471454E+05   338.10  0.0000
          C  1.00000  O  2.00000
 F: PMMA             1.000000  -0.531769E+05   293.15  0.0000
          C  5.00000  H  8.00000  O  2.00000

  SPECIES BEING CONSIDERED IN THIS SYSTEM
 (CONDENSED PHASE MAY HAVE NAME LISTED SEVERAL TIMES)
  LAST thermo.inp UPDATE:    9/09/04

  g 7/97  *C               tpis79  *CH              g 4/02  CH2            
  g 4/02  CH3              g11/00  CH2OH            g 7/00  CH3O           
  g 8/99  CH4              g 7/00  CH3OH            srd 01  CH3OOH         
  tpis79  *CO              g 9/99  *CO2             tpis91  COOH           
  tpis91  *C2              g 6/01  C2H              g 1/91  C2H2,acetylene 
  g 5/01  C2H2,vinylidene  g 4/02  CH2CO,ketene     g 3/02  O(CH)2O        
  srd 01  HO(CO)2OH        g 7/01  C2H3,vinyl       g 6/96  CH3CO,acetyl   
  g 1/00  C2H4             g 8/88  C2H4O,ethylen-o  g 8/88  CH3CHO,ethanal 
  g 6/00  CH3COOH          srd 01  OHCH2COOH        g 7/00  C2H5           
  g 7/00  C2H6             g 8/88  C2H5OH           g 7/00  CH3OCH3        
  srd 01  CH3O2CH3         g 8/00  C2O              tpis79  *C3            
  n 4/98  C3H3,1-propynl   n 4/98  C3H3,2-propynl   g 2/00  C3H4,allene    
  g 1/00  C3H4,propyne     g 5/90  C3H4,cyclo-      g 3/01  C3H5,allyl     
  g 2/00  C3H6,propylene   g 1/00  C3H6,cyclo-      g 6/01  C3H6O,propylox 
  g 6/97  C3H6O,acetone    g 1/02  C3H6O,propanal   g 7/01  C3H7,n-propyl  
  g 9/85  C3H7,i-propyl    g 2/00  C3H8             g 2/00  C3H8O,1propanol
  g 2/00  C3H8O,2propanol  g 7/88  C3O2             g tpis  *C4            
  g 7/01  C4H2,butadiyne   g 8/00  C4H4,1,3-cyclo-  n10/92  C4H6,butadiene 
  n10/93  C4H6,1butyne     n10/93  C4H6,2butyne     g 8/00  C4H6,cyclo-    
  n 4/88  C4H8,1-butene    n 4/88  C4H8,cis2-buten  n 4/88  C4H8,tr2-butene
  n 4/88  C4H8,isobutene   g 8/00  C4H8,cyclo-      g10/00  (CH3COOH)2     
  n10/84  C4H9,n-butyl     n10/84  C4H9,i-butyl     g 1/93  C4H9,s-butyl   
  g 1/93  C4H9,t-butyl     g12/00  C4H10,n-butane   g 8/00  C4H10,isobutane
  g 8/00  *C5              g 5/90  C5H6,1,3cyclo-   g 1/93  C5H8,cyclo-    
  n 4/87  C5H10,1-pentene  g 2/01  C5H10,cyclo-     n10/84  C5H11,pentyl   
  g 1/93  C5H11,t-pentyl   n10/85  C5H12,n-pentane  n10/85  C5H12,i-pentane
  n10/85  CH3C(CH3)2CH3    g 2/93  C6H2             g11/00  C6H5,phenyl    
  g 8/00  C6H5O,phenoxy    g 8/00  C6H6             g 8/00  C6H5OH,phenol  
  g 1/93  C6H10,cyclo-     n 4/87  C6H12,1-hexene   g 6/90  C6H12,cyclo-   
  n10/83  C6H13,n-hexyl    g 6/01  C6H14,n-hexane   g 7/01  C7H7,benzyl    
  g 1/93  C7H8             g12/00  C7H8O,cresol-mx  n 4/87  C7H14,1-heptene
  n10/83  C7H15,n-heptyl   n10/85  C7H16,n-heptane  n10/85  C7H16,2-methylh
  n 4/89  C8H8,styrene     n10/86  C8H10,ethylbenz  n 4/87  C8H16,1-octene 
  n10/83  C8H17,n-octyl    n 4/85  C8H18,n-octane   n 4/85  C8H18,isooctane
  n10/83  C9H19,n-nonyl    g 3/01  C10H8,naphthale  n10/83  C10H21,n-decyl 
  g 8/00  C12H9,o-bipheny  g 8/00  C12H10,biphenyl  g 6/97  *H             
  g 1/01  HCO              g 6/01  HCCO             g 4/02  HO2            
  tpis78  *H2              g 5/01  HCHO,formaldehy  g 6/01  HCOOH          
  g 8/89  H2O              g 6/99  H2O2             g 6/01  (HCOOH)2       
  g 5/97  *O               g 4/02  *OH              tpis89  *O2            
  g 8/01  O3               n 4/83  C(gr)            n 4/83  C(gr)          
  n 4/83  C(gr)            g11/99  H2O(cr)          g 8/01  H2O(L)         
  g 8/01  H2O(L)         

 O/F =   1.341492

                       EFFECTIVE FUEL     EFFECTIVE OXIDANT        MIXTURE
 ENTHALPY                  h(2)/R              h(1)/R               h0/R
 (KG-MOL)(K)/KG       -0.53115398E+03     -0.19562974E+02     -0.23805226E+03

 KG-FORM.WT./KG             bi(2)               bi(1)               b0i
  *O                   0.19976863E-01      0.62312997E-01      0.44232164E-01
  *H                   0.79907451E-01      0.11445654E-02      0.34782465E-01
  *C                   0.49942157E-01      0.15617587E-03      0.21418675E-01

 POINT ITN      T            O           H           C 
   1   23    3265.399     -16.228     -10.506     -15.703
   2    2    3262.090     -16.237     -10.519     -15.724
 Pinf/Pt = 1.729699
   3    4    3099.708     -16.576     -10.704     -15.969
 Pinf/Pt = 1.729513
   3    1    3099.739     -16.576     -10.704     -15.969
   4    1    3262.038     -16.237     -10.519     -15.724
   4    2    3261.945     -16.238     -10.519     -15.724
   4    2    3261.831     -16.238     -10.519     -15.725
   4    1    3261.778     -16.238     -10.519     -15.725
   4    1    3261.773     -16.238     -10.519     -15.725
   2    2    3265.283     -16.228     -10.506     -15.704
 Pinf/Pt = 1.729819
   3    4    3102.354     -16.568     -10.692     -15.948
 Pinf/Pt = 1.729651
   3    1    3102.382     -16.568     -10.691     -15.948
   4    1    3265.231     -16.228     -10.506     -15.704
   4    2    3265.137     -16.229     -10.507     -15.704
   4    2    3265.023     -16.229     -10.507     -15.704
   4    1    3264.970     -16.229     -10.507     -15.704
   4    1    3264.964     -16.229     -10.507     -15.705
 END OF CHAMBER ITERATIONS

 WARNING!!  ASSIGNED pip =   1.00000 IS NOT PERMITTED
 TO BE LESS THAN  Pinj/Pc =  1.00210. POINT OMITTED (ROCKET)





              THEORETICAL ROCKET PERFORMANCE ASSUMING EQUILIBRIUM

            COMPOSITION DURING EXPANSION FROM FINITE AREA COMBUSTOR

 Pin =   209.6 PSIA
 Ac/At = 13.8597      Pinj/Pinf =  1.001049
 CASE =                

             REACTANT                    WT FRACTION      ENERGY      TEMP
                                          (SEE NOTE)     KJ/KG-MOL      K  
 OXIDANT     O2                           0.9828169      1178.139    338.100
 OXIDANT     H2O                          0.0103098   -240480.135    338.100
 OXIDANT     CO2                          0.0068732   -391990.834    338.100
 FUEL        PMMA                         1.0000000   -442140.000    293.150

 O/F=    1.34149  %FUEL= 42.707804  R,EQ.RATIO= 1.361647  PHI,EQ.RATIO= 1.454526

                 INJECTOR  COMB END  THROAT
 Pinj/P            1.0000   1.0021   1.7315
 P, BAR            14.450   14.420   8.3455
 T, K             3265.40  3264.96  3102.38
 RHO, KG/CU M    1.3004 0 1.2979 0 8.0044-1
 H, KJ/KG        -1979.29 -1980.46 -2569.13
 U, KJ/KG        -3090.45 -3091.46 -3611.75
 G, KJ/KG        -38541.5 -38539.0 -37307.2
 S, KJ/(KG)(K)    11.1969  11.1972  11.1972

 M, (1/n)          24.434   24.434   24.740
 (dLV/dLP)t      -1.02979 -1.02978 -1.02350
 (dLV/dLT)p        1.5764   1.5764   1.4795
 Cp, KJ/(KG)(K)    5.7841   5.7842   5.2667
 GAMMAs            1.1318   1.1317   1.1315
 SON VEL,M/SEC     1121.4   1121.3   1086.1
 MACH NUMBER        0.000    0.043    1.000

 PERFORMANCE PARAMETERS

 Ae/At                      13.861   1.0000
 CSTAR, M/SEC               1660.4   1660.4
 CF                         0.0291   0.6542
 Ivac, M/SEC               23038.3   2046.1
 Isp, M/SEC                   48.3   1086.1


 MOLE FRACTIONS

 *CO              0.34947  0.34946  0.34384
 *CO2             0.17386  0.17388  0.18605
 COOH             0.00001  0.00001  0.00000
 *H               0.02481  0.02481  0.02084
 HCO              0.00001  0.00001  0.00000
 HO2              0.00003  0.00003  0.00001
 *H2              0.07938  0.07938  0.07883
 H2O              0.31211  0.31213  0.32440
 *O               0.00723  0.00723  0.00489
 *OH              0.04203  0.04201  0.03320
 *O2              0.01107  0.01106  0.00791

  * THERMODYNAMIC PROPERTIES FITTED TO 20000.K

    PRODUCTS WHICH WERE CONSIDERED BUT WHOSE MOLE FRACTIONS
    WERE LESS THAN 5.000000E-06 FOR ALL ASSIGNED CONDITIONS

 *C              *CH             CH2             CH3             CH2OH          
 CH3O            CH4             CH3OH           CH3OOH          *C2            
 C2H             C2H2,acetylene  C2H2,vinylidene CH2CO,ketene    O(CH)2O        
 HO(CO)2OH       C2H3,vinyl      CH3CO,acetyl    C2H4            C2H4O,ethylen-o
 CH3CHO,ethanal  CH3COOH         OHCH2COOH       C2H5            C2H6           
 C2H5OH          CH3OCH3         CH3O2CH3        C2O             *C3            
 C3H3,1-propynl  C3H3,2-propynl  C3H4,allene     C3H4,propyne    C3H4,cyclo-    
 C3H5,allyl      C3H6,propylene  C3H6,cyclo-     C3H6O,propylox  C3H6O,acetone  
 C3H6O,propanal  C3H7,n-propyl   C3H7,i-propyl   C3H8            C3H8O,1propanol
 C3H8O,2propanol C3O2            *C4             C4H2,butadiyne  C4H4,1,3-cyclo-
 C4H6,butadiene  C4H6,1butyne    C4H6,2butyne    C4H6,cyclo-     C4H8,1-butene  
 C4H8,cis2-buten C4H8,tr2-butene C4H8,isobutene  C4H8,cyclo-     (CH3COOH)2     
 C4H9,n-butyl    C4H9,i-butyl    C4H9,s-butyl    C4H9,t-butyl    C4H10,n-butane 
 C4H10,isobutane *C5             C5H6,1,3cyclo-  C5H8,cyclo-     C5H10,1-pentene
 C5H10,cyclo-    C5H11,pentyl    C5H11,t-pentyl  C5H12,n-pentane C5H12,i-pentane
 CH3C(CH3)2CH3   C6H2            C6H5,phenyl     C6H5O,phenoxy   C6H6           
 C6H5OH,phenol   C6H10,cyclo-    C6H12,1-hexene  C6H12,cyclo-    C6H13,n-hexyl  
 C6H14,n-hexane  C7H7,benzyl     C7H8            C7H8O,cresol-mx C7H14,1-heptene
 C7H15,n-heptyl  C7H16,n-heptane C7H16,2-methylh C8H8,styrene    C8H10,ethylbenz
 C8H16,1-octene  C8H17,n-octyl   C8H18,n-octane  C8H18,isooctane C9H19,n-nonyl  
 C10H8,naphthale C10H21,n-decyl  C12H9,o-bipheny C12H10,biphenyl HCCO           
 HCHO,formaldehy HCOOH           H2O2            (HCOOH)2        O3             
 C(gr)           H2O(cr)         H2O(L)         

 NOTE. WEIGHT FRACTION OF FUEL IN TOTAL FUELS AND OF OXIDANT IN TOTAL OXIDANTS






 WARNING!!  ASSIGNED pip =   0.00000 IS NOT PERMITTED
 TO BE LESS THAN  Pinj/Pc =  1.00210. POINT OMITTED (ROCKET)





              THEORETICAL ROCKET PERFORMANCE ASSUMING EQUILIBRIUM

            COMPOSITION DURING EXPANSION FROM FINITE AREA COMBUSTOR

 Pin =   209.6 PSIA
 Ac/At = 13.8597      Pinj/Pinf =  1.001049
 CASE =                

             REACTANT                    WT FRACTION      ENERGY      TEMP
                                          (SEE NOTE)     KJ/KG-MOL      K  
 OXIDANT     O2                           0.9828169      1178.139    338.100
 OXIDANT     H2O                          0.0103098   -240480.135    338.100
 OXIDANT     CO2                          0.0068732   -391990.834    338.100
 FUEL        PMMA                         1.0000000   -442140.000    293.150

 O/F=    1.34149  %FUEL= 42.707804  R,EQ.RATIO= 1.361647  PHI,EQ.RATIO= 1.454526

                 INJECTOR  COMB END  THROAT
 Pinj/P            1.0000   1.0021   1.7315
 P, BAR            14.450   14.420   8.3455
 T, K             3265.40  3264.96  3102.38
 RHO, KG/CU M    1.3004 0 1.2979 0 8.0044-1
 H, KJ/KG        -1979.29 -1980.46 -2569.13
 U, KJ/KG        -3090.45 -3091.46 -3611.75
 G, KJ/KG        -38541.5 -38539.0 -37307.2
 S, KJ/(KG)(K)    11.1969  11.1972  11.1972

 M, (1/n)          24.434   24.434   24.740
 (dLV/dLP)t      -1.02979 -1.02978 -1.02350
 (dLV/dLT)p        1.5764   1.5764   1.4795
 Cp, KJ/(KG)(K)    5.7841   5.7842   5.2667
 GAMMAs            1.1318   1.1317   1.1315
 SON VEL,M/SEC     1121.4   1121.3   1086.1
 MACH NUMBER        0.000    0.043    1.000

 PERFORMANCE PARAMETERS

 Ae/At                      13.861   1.0000
 CSTAR, M/SEC               1660.4   1660.4
 CF                         0.0291   0.6542
 Ivac, M/SEC               23038.3   2046.1
 Isp, M/SEC                   48.3   1086.1


 MOLE FRACTIONS

 *CO              0.34947  0.34946  0.34384
 *CO2             0.17386  0.17388  0.18605
 COOH             0.00001  0.00001  0.00000
 *H               0.02481  0.02481  0.02084
 HCO              0.00001  0.00001  0.00000
 HO2              0.00003  0.00003  0.00001
 *H2              0.07938  0.07938  0.07883
 H2O              0.31211  0.31213  0.32440
 *O               0.00723  0.00723  0.00489
 *OH              0.04203  0.04201  0.03320
 *O2              0.01107  0.01106  0.00791

  * THERMODYNAMIC PROPERTIES FITTED TO 20000.K

    PRODUCTS WHICH WERE CONSIDERED BUT WHOSE MOLE FRACTIONS
    WERE LESS THAN 5.000000E-06 FOR ALL ASSIGNED CONDITIONS

 *C              *CH             CH2             CH3             CH2OH          
 CH3O            CH4             CH3OH           CH3OOH          *C2            
 C2H             C2H2,acetylene  C2H2,vinylidene CH2CO,ketene    O(CH)2O        
 HO(CO)2OH       C2H3,vinyl      CH3CO,acetyl    C2H4            C2H4O,ethylen-o
 CH3CHO,ethanal  CH3COOH         OHCH2COOH       C2H5            C2H6           
 C2H5OH          CH3OCH3         CH3O2CH3        C2O             *C3            
 C3H3,1-propynl  C3H3,2-propynl  C3H4,allene     C3H4,propyne    C3H4,cyclo-    
 C3H5,allyl      C3H6,propylene  C3H6,cyclo-     C3H6O,propylox  C3H6O,acetone  
 C3H6O,propanal  C3H7,n-propyl   C3H7,i-propyl   C3H8            C3H8O,1propanol
 C3H8O,2propanol C3O2            *C4             C4H2,butadiyne  C4H4,1,3-cyclo-
 C4H6,butadiene  C4H6,1butyne    C4H6,2butyne    C4H6,cyclo-     C4H8,1-butene  
 C4H8,cis2-buten C4H8,tr2-butene C4H8,isobutene  C4H8,cyclo-     (CH3COOH)2     
 C4H9,n-butyl    C4H9,i-butyl    C4H9,s-butyl    C4H9,t-butyl    C4H10,n-butane 
 C4H10,isobutane *C5             C5H6,1,3cyclo-  C5H8,cyclo-     C5H10,1-pentene
 C5H10,cyclo-    C5H11,pentyl    C5H11,t-pentyl  C5H12,n-pentane C5H12,i-pentane
 CH3C(CH3)2CH3   C6H2            C6H5,phenyl     C6H5O,phenoxy   C6H6           
 C6H5OH,phenol   C6H10,cyclo-    C6H12,1-hexene  C6H12,cyclo-    C6H13,n-hexyl  
 C6H14,n-hexane  C7H7,benzyl     C7H8            C7H8O,cresol-mx C7H14,1-heptene
 C7H15,n-heptyl  C7H16,n-heptane C7H16,2-methylh C8H8,styrene    C8H10,ethylbenz
 C8H16,1-octene  C8H17,n-octyl   C8H18,n-octane  C8H18,isooctane C9H19,n-nonyl  
 C10H8,naphthale C10H21,n-decyl  C12H9,o-bipheny C12H10,biphenyl HCCO           
 HCHO,formaldehy HCOOH           H2O2            (HCOOH)2        O3             
 C(gr)           H2O(cr)         H2O(L)         

 NOTE. WEIGHT FRACTION OF FUEL IN TOTAL FUELS AND OF OXIDANT IN TOTAL OXIDANTS






 WARNING!!  ASSIGNED pip =   0.00000 IS NOT PERMITTED
 TO BE LESS THAN  Pinj/Pc =  1.00210. POINT OMITTED (ROCKET)





              THEORETICAL ROCKET PERFORMANCE ASSUMING EQUILIBRIUM

            COMPOSITION DURING EXPANSION FROM FINITE AREA COMBUSTOR

 Pin =   209.6 PSIA
 Ac/At = 13.8597      Pinj/Pinf =  1.001049
 CASE =                

             REACTANT                    WT FRACTION      ENERGY      TEMP
                                          (SEE NOTE)     KJ/KG-MOL      K  
 OXIDANT     O2                           0.9828169      1178.139    338.100
 OXIDANT     H2O                          0.0103098   -240480.135    338.100
 OXIDANT     CO2                          0.0068732   -391990.834    338.100
 FUEL        PMMA                         1.0000000   -442140.000    293.150

 O/F=    1.34149  %FUEL= 42.707804  R,EQ.RATIO= 1.361647  PHI,EQ.RATIO= 1.454526

                 INJECTOR  COMB END  THROAT
 Pinj/P            1.0000   1.0021   1.7315
 P, BAR            14.450   14.420   8.3455
 T, K             3265.40  3264.96  3102.38
 RHO, KG/CU M    1.3004 0 1.2979 0 8.0044-1
 H, KJ/KG        -1979.29 -1980.46 -2569.13
 U, KJ/KG        -3090.45 -3091.46 -3611.75
 G, KJ/KG        -38541.5 -38539.0 -37307.2
 S, KJ/(KG)(K)    11.1969  11.1972  11.1972

 M, (1/n)          24.434   24.434   24.740
 (dLV/dLP)t      -1.02979 -1.02978 -1.02350
 (dLV/dLT)p        1.5764   1.5764   1.4795
 Cp, KJ/(KG)(K)    5.7841   5.7842   5.2667
 GAMMAs            1.1318   1.1317   1.1315
 SON VEL,M/SEC     1121.4   1121.3   1086.1
 MACH NUMBER        0.000    0.043    1.000

 PERFORMANCE PARAMETERS

 Ae/At                      13.861   1.0000
 CSTAR, M/SEC               1660.4   1660.4
 CF                         0.0291   0.6542
 Ivac, M/SEC               23038.3   2046.1
 Isp, M/SEC                   48.3   1086.1


 MOLE FRACTIONS

 *CO              0.34947  0.34946  0.34384
 *CO2             0.17386  0.17388  0.18605
 COOH             0.00001  0.00001  0.00000
 *H               0.02481  0.02481  0.02084
 HCO              0.00001  0.00001  0.00000
 HO2              0.00003  0.00003  0.00001
 *H2              0.07938  0.07938  0.07883
 H2O              0.31211  0.31213  0.32440
 *O               0.00723  0.00723  0.00489
 *OH              0.04203  0.04201  0.03320
 *O2              0.01107  0.01106  0.00791

  * THERMODYNAMIC PROPERTIES FITTED TO 20000.K

    PRODUCTS WHICH WERE CONSIDERED BUT WHOSE MOLE FRACTIONS
    WERE LESS THAN 5.000000E-06 FOR ALL ASSIGNED CONDITIONS

 *C              *CH             CH2             CH3             CH2OH          
 CH3O            CH4             CH3OH           CH3OOH          *C2            
 C2H             C2H2,acetylene  C2H2,vinylidene CH2CO,ketene    O(CH)2O        
 HO(CO)2OH       C2H3,vinyl      CH3CO,acetyl    C2H4            C2H4O,ethylen-o
 CH3CHO,ethanal  CH3COOH         OHCH2COOH       C2H5            C2H6           
 C2H5OH          CH3OCH3         CH3O2CH3        C2O             *C3            
 C3H3,1-propynl  C3H3,2-propynl  C3H4,allene     C3H4,propyne    C3H4,cyclo-    
 C3H5,allyl      C3H6,propylene  C3H6,cyclo-     C3H6O,propylox  C3H6O,acetone  
 C3H6O,propanal  C3H7,n-propyl   C3H7,i-propyl   C3H8            C3H8O,1propanol
 C3H8O,2propanol C3O2            *C4             C4H2,butadiyne  C4H4,1,3-cyclo-
 C4H6,butadiene  C4H6,1butyne    C4H6,2butyne    C4H6,cyclo-     C4H8,1-butene  
 C4H8,cis2-buten C4H8,tr2-butene C4H8,isobutene  C4H8,cyclo-     (CH3COOH)2     
 C4H9,n-butyl    C4H9,i-butyl    C4H9,s-butyl    C4H9,t-butyl    C4H10,n-butane 
 C4H10,isobutane *C5             C5H6,1,3cyclo-  C5H8,cyclo-     C5H10,1-pentene
 C5H10,cyclo-    C5H11,pentyl    C5H11,t-pentyl  C5H12,n-pentane C5H12,i-pentane
 CH3C(CH3)2CH3   C6H2            C6H5,phenyl     C6H5O,phenoxy   C6H6           
 C6H5OH,phenol   C6H10,cyclo-    C6H12,1-hexene  C6H12,cyclo-    C6H13,n-hexyl  
 C6H14,n-hexane  C7H7,benzyl     C7H8            C7H8O,cresol-mx C7H14,1-heptene
 C7H15,n-heptyl  C7H16,n-heptane C7H16,2-methylh C8H8,styrene    C8H10,ethylbenz
 C8H16,1-octene  C8H17,n-octyl   C8H18,n-octane  C8H18,isooctane C9H19,n-nonyl  
 C10H8,naphthale C10H21,n-decyl  C12H9,o-bipheny C12H10,biphenyl HCCO           
 HCHO,formaldehy HCOOH           H2O2            (HCOOH)2        O3             
 C(gr)           H2O(cr)         H2O(L)         

 NOTE. WEIGHT FRACTION OF FUEL IN TOTAL FUELS AND OF OXIDANT IN TOTAL OXIDANTS






 WARNING!!  ASSIGNED pip =   0.00000 IS NOT PERMITTED
 TO BE LESS THAN  Pinj/Pc =  1.00210. POINT OMITTED (ROCKET)





              THEORETICAL ROCKET PERFORMANCE ASSUMING EQUILIBRIUM

            COMPOSITION DURING EXPANSION FROM FINITE AREA COMBUSTOR

 Pin =   209.6 PSIA
 Ac/At = 13.8597      Pinj/Pinf =  1.001049
 CASE =                

             REACTANT                    WT FRACTION      ENERGY      TEMP
                                          (SEE NOTE)     KJ/KG-MOL      K  
 OXIDANT     O2                           0.9828169      1178.139    338.100
 OXIDANT     H2O                          0.0103098   -240480.135    338.100
 OXIDANT     CO2                          0.0068732   -391990.834    338.100
 FUEL        PMMA                         1.0000000   -442140.000    293.150

 O/F=    1.34149  %FUEL= 42.707804  R,EQ.RATIO= 1.361647  PHI,EQ.RATIO= 1.454526

                 INJECTOR  COMB END  THROAT
 Pinj/P            1.0000   1.0021   1.7315
 P, BAR            14.450   14.420   8.3455
 T, K             3265.40  3264.96  3102.38
 RHO, KG/CU M    1.3004 0 1.2979 0 8.0044-1
 H, KJ/KG        -1979.29 -1980.46 -2569.13
 U, KJ/KG        -3090.45 -3091.46 -3611.75
 G, KJ/KG        -38541.5 -38539.0 -37307.2
 S, KJ/(KG)(K)    11.1969  11.1972  11.1972

 M, (1/n)          24.434   24.434   24.740
 (dLV/dLP)t      -1.02979 -1.02978 -1.02350
 (dLV/dLT)p        1.5764   1.5764   1.4795
 Cp, KJ/(KG)(K)    5.7841   5.7842   5.2667
 GAMMAs            1.1318   1.1317   1.1315
 SON VEL,M/SEC     1121.4   1121.3   1086.1
 MACH NUMBER        0.000    0.043    1.000

 PERFORMANCE PARAMETERS

 Ae/At                      13.861   1.0000
 CSTAR, M/SEC               1660.4   1660.4
 CF                         0.0291   0.6542
 Ivac, M/SEC               23038.3   2046.1
 Isp, M/SEC                   48.3   1086.1


 MOLE FRACTIONS

 *CO              0.34947  0.34946  0.34384
 *CO2             0.17386  0.17388  0.18605
 COOH             0.00001  0.00001  0.00000
 *H               0.02481  0.02481  0.02084
 HCO              0.00001  0.00001  0.00000
 HO2              0.00003  0.00003  0.00001
 *H2              0.07938  0.07938  0.07883
 H2O              0.31211  0.31213  0.32440
 *O               0.00723  0.00723  0.00489
 *OH              0.04203  0.04201  0.03320
 *O2              0.01107  0.01106  0.00791

  * THERMODYNAMIC PROPERTIES FITTED TO 20000.K

    PRODUCTS WHICH WERE CONSIDERED BUT WHOSE MOLE FRACTIONS
    WERE LESS THAN 5.000000E-06 FOR ALL ASSIGNED CONDITIONS

 *C              *CH             CH2             CH3             CH2OH          
 CH3O            CH4             CH3OH           CH3OOH          *C2            
 C2H             C2H2,acetylene  C2H2,vinylidene CH2CO,ketene    O(CH)2O        
 HO(CO)2OH       C2H3,vinyl      CH3CO,acetyl    C2H4            C2H4O,ethylen-o
 CH3CHO,ethanal  CH3COOH         OHCH2COOH       C2H5            C2H6           
 C2H5OH          CH3OCH3         CH3O2CH3        C2O             *C3            
 C3H3,1-propynl  C3H3,2-propynl  C3H4,allene     C3H4,propyne    C3H4,cyclo-    
 C3H5,allyl      C3H6,propylene  C3H6,cyclo-     C3H6O,propylox  C3H6O,acetone  
 C3H6O,propanal  C3H7,n-propyl   C3H7,i-propyl   C3H8            C3H8O,1propanol
 C3H8O,2propanol C3O2            *C4             C4H2,butadiyne  C4H4,1,3-cyclo-
 C4H6,butadiene  C4H6,1butyne    C4H6,2butyne    C4H6,cyclo-     C4H8,1-butene  
 C4H8,cis2-buten C4H8,tr2-butene C4H8,isobutene  C4H8,cyclo-     (CH3COOH)2     
 C4H9,n-butyl    C4H9,i-butyl    C4H9,s-butyl    C4H9,t-butyl    C4H10,n-butane 
 C4H10,isobutane *C5             C5H6,1,3cyclo-  C5H8,cyclo-     C5H10,1-pentene
 C5H10,cyclo-    C5H11,pentyl    C5H11,t-pentyl  C5H12,n-pentane C5H12,i-pentane
 CH3C(CH3)2CH3   C6H2            C6H5,phenyl     C6H5O,phenoxy   C6H6           
 C6H5OH,phenol   C6H10,cyclo-    C6H12,1-hexene  C6H12,cyclo-    C6H13,n-hexyl  
 C6H14,n-hexane  C7H7,benzyl     C7H8            C7H8O,cresol-mx C7H14,1-heptene
 C7H15,n-heptyl  C7H16,n-heptane C7H16,2-methylh C8H8,styrene    C8H10,ethylbenz
 C8H16,1-octene  C8H17,n-octyl   C8H18,n-octane  C8H18,isooctane C9H19,n-nonyl  
 C10H8,naphthale C10H21,n-decyl  C12H9,o-bipheny C12H10,biphenyl HCCO           
 HCHO,formaldehy HCOOH           H2O2            (HCOOH)2        O3             
 C(gr)           H2O(cr)         H2O(L)         

 NOTE. WEIGHT FRACTION OF FUEL IN TOTAL FUELS AND OF OXIDANT IN TOTAL OXIDANTS






 WARNING!!  ASSIGNED pip =   0.00000 IS NOT PERMITTED
 TO BE LESS THAN  Pinj/Pc =  1.00210. POINT OMITTED (ROCKET)





              THEORETICAL ROCKET PERFORMANCE ASSUMING EQUILIBRIUM

            COMPOSITION DURING EXPANSION FROM FINITE AREA COMBUSTOR

 Pin =   209.6 PSIA
 Ac/At = 13.8597      Pinj/Pinf =  1.001049
 CASE =                

             REACTANT                    WT FRACTION      ENERGY      TEMP
                                          (SEE NOTE)     KJ/KG-MOL      K  
 OXIDANT     O2                           0.9828169      1178.139    338.100
 OXIDANT     H2O                          0.0103098   -240480.135    338.100
 OXIDANT     CO2                          0.0068732   -391990.834    338.100
 FUEL        PMMA                         1.0000000   -442140.000    293.150

 O/F=    1.34149  %FUEL= 42.707804  R,EQ.RATIO= 1.361647  PHI,EQ.RATIO= 1.454526

                 INJECTOR  COMB END  THROAT
 Pinj/P            1.0000   1.0021   1.7315
 P, BAR            14.450   14.420   8.3455
 T, K             3265.40  3264.96  3102.38
 RHO, KG/CU M    1.3004 0 1.2979 0 8.0044-1
 H, KJ/KG        -1979.29 -1980.46 -2569.13
 U, KJ/KG        -3090.45 -3091.46 -3611.75
 G, KJ/KG        -38541.5 -38539.0 -37307.2
 S, KJ/(KG)(K)    11.1969  11.1972  11.1972

 M, (1/n)          24.434   24.434   24.740
 (dLV/dLP)t      -1.02979 -1.02978 -1.02350
 (dLV/dLT)p        1.5764   1.5764   1.4795
 Cp, KJ/(KG)(K)    5.7841   5.7842   5.2667
 GAMMAs            1.1318   1.1317   1.1315
 SON VEL,M/SEC     1121.4   1121.3   1086.1
 MACH NUMBER        0.000    0.043    1.000

 PERFORMANCE PARAMETERS

 Ae/At                      13.861   1.0000
 CSTAR, M/SEC               1660.4   1660.4
 CF                         0.0291   0.6542
 Ivac, M/SEC               23038.3   2046.1
 Isp, M/SEC                   48.3   1086.1


 MOLE FRACTIONS

 *CO              0.34947  0.34946  0.34384
 *CO2             0.17386  0.17388  0.18605
 COOH             0.00001  0.00001  0.00000
 *H               0.02481  0.02481  0.02084
 HCO              0.00001  0.00001  0.00000
 HO2              0.00003  0.00003  0.00001
 *H2              0.07938  0.07938  0.07883
 H2O              0.31211  0.31213  0.32440
 *O               0.00723  0.00723  0.00489
 *OH              0.04203  0.04201  0.03320
 *O2              0.01107  0.01106  0.00791

  * THERMODYNAMIC PROPERTIES FITTED TO 20000.K

    PRODUCTS WHICH WERE CONSIDERED BUT WHOSE MOLE FRACTIONS
    WERE LESS THAN 5.000000E-06 FOR ALL ASSIGNED CONDITIONS

 *C              *CH             CH2             CH3             CH2OH          
 CH3O            CH4             CH3OH           CH3OOH          *C2            
 C2H             C2H2,acetylene  C2H2,vinylidene CH2CO,ketene    O(CH)2O        
 HO(CO)2OH       C2H3,vinyl      CH3CO,acetyl    C2H4            C2H4O,ethylen-o
 CH3CHO,ethanal  CH3COOH         OHCH2COOH       C2H5            C2H6           
 C2H5OH          CH3OCH3         CH3O2CH3        C2O             *C3            
 C3H3,1-propynl  C3H3,2-propynl  C3H4,allene     C3H4,propyne    C3H4,cyclo-    
 C3H5,allyl      C3H6,propylene  C3H6,cyclo-     C3H6O,propylox  C3H6O,acetone  
 C3H6O,propanal  C3H7,n-propyl   C3H7,i-propyl   C3H8            C3H8O,1propanol
 C3H8O,2propanol C3O2            *C4             C4H2,butadiyne  C4H4,1,3-cyclo-
 C4H6,butadiene  C4H6,1butyne    C4H6,2butyne    C4H6,cyclo-     C4H8,1-butene  
 C4H8,cis2-buten C4H8,tr2-butene C4H8,isobutene  C4H8,cyclo-     (CH3COOH)2     
 C4H9,n-butyl    C4H9,i-butyl    C4H9,s-butyl    C4H9,t-butyl    C4H10,n-butane 
 C4H10,isobutane *C5             C5H6,1,3cyclo-  C5H8,cyclo-     C5H10,1-pentene
 C5H10,cyclo-    C5H11,pentyl    C5H11,t-pentyl  C5H12,n-pentane C5H12,i-pentane
 CH3C(CH3)2CH3   C6H2            C6H5,phenyl     C6H5O,phenoxy   C6H6           
 C6H5OH,phenol   C6H10,cyclo-    C6H12,1-hexene  C6H12,cyclo-    C6H13,n-hexyl  
 C6H14,n-hexane  C7H7,benzyl     C7H8            C7H8O,cresol-mx C7H14,1-heptene
 C7H15,n-heptyl  C7H16,n-heptane C7H16,2-methylh C8H8,styrene    C8H10,ethylbenz
 C8H16,1-octene  C8H17,n-octyl   C8H18,n-octane  C8H18,isooctane C9H19,n-nonyl  
 C10H8,naphthale C10H21,n-decyl  C12H9,o-bipheny C12H10,biphenyl HCCO           
 HCHO,formaldehy HCOOH           H2O2            (HCOOH)2        O3             
 C(gr)           H2O(cr)         H2O(L)         

 NOTE. WEIGHT FRACTION OF FUEL IN TOTAL FUELS AND OF OXIDANT IN TOTAL OXIDANTS






 WARNING!!  ASSIGNED pip =   0.00000 IS NOT PERMITTED
 TO BE LESS THAN  Pinj/Pc =  1.00210. POINT OMITTED (ROCKET)





              THEORETICAL ROCKET PERFORMANCE ASSUMING EQUILIBRIUM

            COMPOSITION DURING EXPANSION FROM FINITE AREA COMBUSTOR

 Pin =   209.6 PSIA
 Ac/At = 13.8597      Pinj/Pinf =  1.001049
 CASE =                

             REACTANT                    WT FRACTION      ENERGY      TEMP
                                          (SEE NOTE)     KJ/KG-MOL      K  
 OXIDANT     O2                           0.9828169      1178.139    338.100
 OXIDANT     H2O                          0.0103098   -240480.135    338.100
 OXIDANT     CO2                          0.0068732   -391990.834    338.100
 FUEL        PMMA                         1.0000000   -442140.000    293.150

 O/F=    1.34149  %FUEL= 42.707804  R,EQ.RATIO= 1.361647  PHI,EQ.RATIO= 1.454526

                 INJECTOR  COMB END  THROAT
 Pinj/P            1.0000   1.0021   1.7315
 P, BAR            14.450   14.420   8.3455
 T, K             3265.40  3264.96  3102.38
 RHO, KG/CU M    1.3004 0 1.2979 0 8.0044-1
 H, KJ/KG        -1979.29 -1980.46 -2569.13
 U, KJ/KG        -3090.45 -3091.46 -3611.75
 G, KJ/KG        -38541.5 -38539.0 -37307.2
 S, KJ/(KG)(K)    11.1969  11.1972  11.1972

 M, (1/n)          24.434   24.434   24.740
 (dLV/dLP)t      -1.02979 -1.02978 -1.02350
 (dLV/dLT)p        1.5764   1.5764   1.4795
 Cp, KJ/(KG)(K)    5.7841   5.7842   5.2667
 GAMMAs            1.1318   1.1317   1.1315
 SON VEL,M/SEC     1121.4   1121.3   1086.1
 MACH NUMBER        0.000    0.043    1.000

 PERFORMANCE PARAMETERS

 Ae/At                      13.861   1.0000
 CSTAR, M/SEC               1660.4   1660.4
 CF                         0.0291   0.6542
 Ivac, M/SEC               23038.3   2046.1
 Isp, M/SEC                   48.3   1086.1


 MOLE FRACTIONS

 *CO              0.34947  0.34946  0.34384
 *CO2             0.17386  0.17388  0.18605
 COOH             0.00001  0.00001  0.00000
 *H               0.02481  0.02481  0.02084
 HCO              0.00001  0.00001  0.00000
 HO2              0.00003  0.00003  0.00001
 *H2              0.07938  0.07938  0.07883
 H2O              0.31211  0.31213  0.32440
 *O               0.00723  0.00723  0.00489
 *OH              0.04203  0.04201  0.03320
 *O2              0.01107  0.01106  0.00791

  * THERMODYNAMIC PROPERTIES FITTED TO 20000.K

    PRODUCTS WHICH WERE CONSIDERED BUT WHOSE MOLE FRACTIONS
    WERE LESS THAN 5.000000E-06 FOR ALL ASSIGNED CONDITIONS

 *C              *CH             CH2             CH3             CH2OH          
 CH3O            CH4             CH3OH           CH3OOH          *C2            
 C2H             C2H2,acetylene  C2H2,vinylidene CH2CO,ketene    O(CH)2O        
 HO(CO)2OH       C2H3,vinyl      CH3CO,acetyl    C2H4            C2H4O,ethylen-o
 CH3CHO,ethanal  CH3COOH         OHCH2COOH       C2H5            C2H6           
 C2H5OH          CH3OCH3         CH3O2CH3        C2O             *C3            
 C3H3,1-propynl  C3H3,2-propynl  C3H4,allene     C3H4,propyne    C3H4,cyclo-    
 C3H5,allyl      C3H6,propylene  C3H6,cyclo-     C3H6O,propylox  C3H6O,acetone  
 C3H6O,propanal  C3H7,n-propyl   C3H7,i-propyl   C3H8            C3H8O,1propanol
 C3H8O,2propanol C3O2            *C4             C4H2,butadiyne  C4H4,1,3-cyclo-
 C4H6,butadiene  C4H6,1butyne    C4H6,2butyne    C4H6,cyclo-     C4H8,1-butene  
 C4H8,cis2-buten C4H8,tr2-butene C4H8,isobutene  C4H8,cyclo-     (CH3COOH)2     
 C4H9,n-butyl    C4H9,i-butyl    C4H9,s-butyl    C4H9,t-butyl    C4H10,n-butane 
 C4H10,isobutane *C5             C5H6,1,3cyclo-  C5H8,cyclo-     C5H10,1-pentene
 C5H10,cyclo-    C5H11,pentyl    C5H11,t-pentyl  C5H12,n-pentane C5H12,i-pentane
 CH3C(CH3)2CH3   C6H2            C6H5,phenyl     C6H5O,phenoxy   C6H6           
 C6H5OH,phenol   C6H10,cyclo-    C6H12,1-hexene  C6H12,cyclo-    C6H13,n-hexyl  
 C6H14,n-hexane  C7H7,benzyl     C7H8            C7H8O,cresol-mx C7H14,1-heptene
 C7H15,n-heptyl  C7H16,n-heptane C7H16,2-methylh C8H8,styrene    C8H10,ethylbenz
 C8H16,1-octene  C8H17,n-octyl   C8H18,n-octane  C8H18,isooctane C9H19,n-nonyl  
 C10H8,naphthale C10H21,n-decyl  C12H9,o-bipheny C12H10,biphenyl HCCO           
 HCHO,formaldehy HCOOH           H2O2            (HCOOH)2        O3             
 C(gr)           H2O(cr)         H2O(L)         

 NOTE. WEIGHT FRACTION OF FUEL IN TOTAL FUELS AND OF OXIDANT IN TOTAL OXIDANTS






 WARNING!!  ASSIGNED pip =   0.00000 IS NOT PERMITTED
 TO BE LESS THAN  Pinj/Pc =  1.00210. POINT OMITTED (ROCKET)





              THEORETICAL ROCKET PERFORMANCE ASSUMING EQUILIBRIUM

            COMPOSITION DURING EXPANSION FROM FINITE AREA COMBUSTOR

 Pin =   209.6 PSIA
 Ac/At = 13.8597      Pinj/Pinf =  1.001049
 CASE =                

             REACTANT                    WT FRACTION      ENERGY      TEMP
                                          (SEE NOTE)     KJ/KG-MOL      K  
 OXIDANT     O2                           0.9828169      1178.139    338.100
 OXIDANT     H2O                          0.0103098   -240480.135    338.100
 OXIDANT     CO2                          0.0068732   -391990.834    338.100
 FUEL        PMMA                         1.0000000   -442140.000    293.150

 O/F=    1.34149  %FUEL= 42.707804  R,EQ.RATIO= 1.361647  PHI,EQ.RATIO= 1.454526

                 INJECTOR  COMB END  THROAT
 Pinj/P            1.0000   1.0021   1.7315
 P, BAR            14.450   14.420   8.3455
 T, K             3265.40  3264.96  3102.38
 RHO, KG/CU M    1.3004 0 1.2979 0 8.0044-1
 H, KJ/KG        -1979.29 -1980.46 -2569.13
 U, KJ/KG        -3090.45 -3091.46 -3611.75
 G, KJ/KG        -38541.5 -38539.0 -37307.2
 S, KJ/(KG)(K)    11.1969  11.1972  11.1972

 M, (1/n)          24.434   24.434   24.740
 (dLV/dLP)t      -1.02979 -1.02978 -1.02350
 (dLV/dLT)p        1.5764   1.5764   1.4795
 Cp, KJ/(KG)(K)    5.7841   5.7842   5.2667
 GAMMAs            1.1318   1.1317   1.1315
 SON VEL,M/SEC     1121.4   1121.3   1086.1
 MACH NUMBER        0.000    0.043    1.000

 PERFORMANCE PARAMETERS

 Ae/At                      13.861   1.0000
 CSTAR, M/SEC               1660.4   1660.4
 CF                         0.0291   0.6542
 Ivac, M/SEC               23038.3   2046.1
 Isp, M/SEC                   48.3   1086.1


 MOLE FRACTIONS

 *CO              0.34947  0.34946  0.34384
 *CO2             0.17386  0.17388  0.18605
 COOH             0.00001  0.00001  0.00000
 *H               0.02481  0.02481  0.02084
 HCO              0.00001  0.00001  0.00000
 HO2              0.00003  0.00003  0.00001
 *H2              0.07938  0.07938  0.07883
 H2O              0.31211  0.31213  0.32440
 *O               0.00723  0.00723  0.00489
 *OH              0.04203  0.04201  0.03320
 *O2              0.01107  0.01106  0.00791

  * THERMODYNAMIC PROPERTIES FITTED TO 20000.K

    PRODUCTS WHICH WERE CONSIDERED BUT WHOSE MOLE FRACTIONS
    WERE LESS THAN 5.000000E-06 FOR ALL ASSIGNED CONDITIONS

 *C              *CH             CH2             CH3             CH2OH          
 CH3O            CH4             CH3OH           CH3OOH          *C2            
 C2H             C2H2,acetylene  C2H2,vinylidene CH2CO,ketene    O(CH)2O        
 HO(CO)2OH       C2H3,vinyl      CH3CO,acetyl    C2H4            C2H4O,ethylen-o
 CH3CHO,ethanal  CH3COOH         OHCH2COOH       C2H5            C2H6           
 C2H5OH          CH3OCH3         CH3O2CH3        C2O             *C3            
 C3H3,1-propynl  C3H3,2-propynl  C3H4,allene     C3H4,propyne    C3H4,cyclo-    
 C3H5,allyl      C3H6,propylene  C3H6,cyclo-     C3H6O,propylox  C3H6O,acetone  
 C3H6O,propanal  C3H7,n-propyl   C3H7,i-propyl   C3H8            C3H8O,1propanol
 C3H8O,2propanol C3O2            *C4             C4H2,butadiyne  C4H4,1,3-cyclo-
 C4H6,butadiene  C4H6,1butyne    C4H6,2butyne    C4H6,cyclo-     C4H8,1-butene  
 C4H8,cis2-buten C4H8,tr2-butene C4H8,isobutene  C4H8,cyclo-     (CH3COOH)2     
 C4H9,n-butyl    C4H9,i-butyl    C4H9,s-butyl    C4H9,t-butyl    C4H10,n-butane 
 C4H10,isobutane *C5             C5H6,1,3cyclo-  C5H8,cyclo-     C5H10,1-pentene
 C5H10,cyclo-    C5H11,pentyl    C5H11,t-pentyl  C5H12,n-pentane C5H12,i-pentane
 CH3C(CH3)2CH3   C6H2            C6H5,phenyl     C6H5O,phenoxy   C6H6           
 C6H5OH,phenol   C6H10,cyclo-    C6H12,1-hexene  C6H12,cyclo-    C6H13,n-hexyl  
 C6H14,n-hexane  C7H7,benzyl     C7H8            C7H8O,cresol-mx C7H14,1-heptene
 C7H15,n-heptyl  C7H16,n-heptane C7H16,2-methylh C8H8,styrene    C8H10,ethylbenz
 C8H16,1-octene  C8H17,n-octyl   C8H18,n-octane  C8H18,isooctane C9H19,n-nonyl  
 C10H8,naphthale C10H21,n-decyl  C12H9,o-bipheny C12H10,biphenyl HCCO           
 HCHO,formaldehy HCOOH           H2O2            (HCOOH)2        O3             
 C(gr)           H2O(cr)         H2O(L)         

 NOTE. WEIGHT FRACTION OF FUEL IN TOTAL FUELS AND OF OXIDANT IN TOTAL OXIDANTS






 WARNING!!  ASSIGNED pip =   0.00000 IS NOT PERMITTED
 TO BE LESS THAN  Pinj/Pc =  1.00210. POINT OMITTED (ROCKET)





              THEORETICAL ROCKET PERFORMANCE ASSUMING EQUILIBRIUM

            COMPOSITION DURING EXPANSION FROM FINITE AREA COMBUSTOR

 Pin =   209.6 PSIA
 Ac/At = 13.8597      Pinj/Pinf =  1.001049
 CASE =                

             REACTANT                    WT FRACTION      ENERGY      TEMP
                                          (SEE NOTE)     KJ/KG-MOL      K  
 OXIDANT     O2                           0.9828169      1178.139    338.100
 OXIDANT     H2O                          0.0103098   -240480.135    338.100
 OXIDANT     CO2                          0.0068732   -391990.834    338.100
 FUEL        PMMA                         1.0000000   -442140.000    293.150

 O/F=    1.34149  %FUEL= 42.707804  R,EQ.RATIO= 1.361647  PHI,EQ.RATIO= 1.454526

                 INJECTOR  COMB END  THROAT
 Pinj/P            1.0000   1.0021   1.7315
 P, BAR            14.450   14.420   8.3455
 T, K             3265.40  3264.96  3102.38
 RHO, KG/CU M    1.3004 0 1.2979 0 8.0044-1
 H, KJ/KG        -1979.29 -1980.46 -2569.13
 U, KJ/KG        -3090.45 -3091.46 -3611.75
 G, KJ/KG        -38541.5 -38539.0 -37307.2
 S, KJ/(KG)(K)    11.1969  11.1972  11.1972

 M, (1/n)          24.434   24.434   24.740
 (dLV/dLP)t      -1.02979 -1.02978 -1.02350
 (dLV/dLT)p        1.5764   1.5764   1.4795
 Cp, KJ/(KG)(K)    5.7841   5.7842   5.2667
 GAMMAs            1.1318   1.1317   1.1315
 SON VEL,M/SEC     1121.4   1121.3   1086.1
 MACH NUMBER        0.000    0.043    1.000

 PERFORMANCE PARAMETERS

 Ae/At                      13.861   1.0000
 CSTAR, M/SEC               1660.4   1660.4
 CF                         0.0291   0.6542
 Ivac, M/SEC               23038.3   2046.1
 Isp, M/SEC                   48.3   1086.1


 MOLE FRACTIONS

 *CO              0.34947  0.34946  0.34384
 *CO2             0.17386  0.17388  0.18605
 COOH             0.00001  0.00001  0.00000
 *H               0.02481  0.02481  0.02084
 HCO              0.00001  0.00001  0.00000
 HO2              0.00003  0.00003  0.00001
 *H2              0.07938  0.07938  0.07883
 H2O              0.31211  0.31213  0.32440
 *O               0.00723  0.00723  0.00489
 *OH              0.04203  0.04201  0.03320
 *O2              0.01107  0.01106  0.00791

  * THERMODYNAMIC PROPERTIES FITTED TO 20000.K

    PRODUCTS WHICH WERE CONSIDERED BUT WHOSE MOLE FRACTIONS
    WERE LESS THAN 5.000000E-06 FOR ALL ASSIGNED CONDITIONS

 *C              *CH             CH2             CH3             CH2OH          
 CH3O            CH4             CH3OH           CH3OOH          *C2            
 C2H             C2H2,acetylene  C2H2,vinylidene CH2CO,ketene    O(CH)2O        
 HO(CO)2OH       C2H3,vinyl      CH3CO,acetyl    C2H4            C2H4O,ethylen-o
 CH3CHO,ethanal  CH3COOH         OHCH2COOH       C2H5            C2H6           
 C2H5OH          CH3OCH3         CH3O2CH3        C2O             *C3            
 C3H3,1-propynl  C3H3,2-propynl  C3H4,allene     C3H4,propyne    C3H4,cyclo-    
 C3H5,allyl      C3H6,propylene  C3H6,cyclo-     C3H6O,propylox  C3H6O,acetone  
 C3H6O,propanal  C3H7,n-propyl   C3H7,i-propyl   C3H8            C3H8O,1propanol
 C3H8O,2propanol C3O2            *C4             C4H2,butadiyne  C4H4,1,3-cyclo-
 C4H6,butadiene  C4H6,1butyne    C4H6,2butyne    C4H6,cyclo-     C4H8,1-butene  
 C4H8,cis2-buten C4H8,tr2-butene C4H8,isobutene  C4H8,cyclo-     (CH3COOH)2     
 C4H9,n-butyl    C4H9,i-butyl    C4H9,s-butyl    C4H9,t-butyl    C4H10,n-butane 
 C4H10,isobutane *C5             C5H6,1,3cyclo-  C5H8,cyclo-     C5H10,1-pentene
 C5H10,cyclo-    C5H11,pentyl    C5H11,t-pentyl  C5H12,n-pentane C5H12,i-pentane
 CH3C(CH3)2CH3   C6H2            C6H5,phenyl     C6H5O,phenoxy   C6H6           
 C6H5OH,phenol   C6H10,cyclo-    C6H12,1-hexene  C6H12,cyclo-    C6H13,n-hexyl  
 C6H14,n-hexane  C7H7,benzyl     C7H8            C7H8O,cresol-mx C7H14,1-heptene
 C7H15,n-heptyl  C7H16,n-heptane C7H16,2-methylh C8H8,styrene    C8H10,ethylbenz
 C8H16,1-octene  C8H17,n-octyl   C8H18,n-octane  C8H18,isooctane C9H19,n-nonyl  
 C10H8,naphthale C10H21,n-decyl  C12H9,o-bipheny C12H10,biphenyl HCCO           
 HCHO,formaldehy HCOOH           H2O2            (HCOOH)2        O3             
 C(gr)           H2O(cr)         H2O(L)         

 NOTE. WEIGHT FRACTION OF FUEL IN TOTAL FUELS AND OF OXIDANT IN TOTAL OXIDANTS






 WARNING!!  ASSIGNED pip =   0.00000 IS NOT PERMITTED
 TO BE LESS THAN  Pinj/Pc =  1.00210. POINT OMITTED (ROCKET)





              THEORETICAL ROCKET PERFORMANCE ASSUMING EQUILIBRIUM

            COMPOSITION DURING EXPANSION FROM FINITE AREA COMBUSTOR

 Pin =   209.6 PSIA
 Ac/At = 13.8597      Pinj/Pinf =  1.001049
 CASE =                

             REACTANT                    WT FRACTION      ENERGY      TEMP
                                          (SEE NOTE)     KJ/KG-MOL      K  
 OXIDANT     O2                           0.9828169      1178.139    338.100
 OXIDANT     H2O                          0.0103098   -240480.135    338.100
 OXIDANT     CO2                          0.0068732   -391990.834    338.100
 FUEL        PMMA                         1.0000000   -442140.000    293.150

 O/F=    1.34149  %FUEL= 42.707804  R,EQ.RATIO= 1.361647  PHI,EQ.RATIO= 1.454526

                 INJECTOR  COMB END  THROAT
 Pinj/P            1.0000   1.0021   1.7315
 P, BAR            14.450   14.420   8.3455
 T, K             3265.40  3264.96  3102.38
 RHO, KG/CU M    1.3004 0 1.2979 0 8.0044-1
 H, KJ/KG        -1979.29 -1980.46 -2569.13
 U, KJ/KG        -3090.45 -3091.46 -3611.75
 G, KJ/KG        -38541.5 -38539.0 -37307.2
 S, KJ/(KG)(K)    11.1969  11.1972  11.1972

 M, (1/n)          24.434   24.434   24.740
 (dLV/dLP)t      -1.02979 -1.02978 -1.02350
 (dLV/dLT)p        1.5764   1.5764   1.4795
 Cp, KJ/(KG)(K)    5.7841   5.7842   5.2667
 GAMMAs            1.1318   1.1317   1.1315
 SON VEL,M/SEC     1121.4   1121.3   1086.1
 MACH NUMBER        0.000    0.043    1.000

 PERFORMANCE PARAMETERS

 Ae/At                      13.861   1.0000
 CSTAR, M/SEC               1660.4   1660.4
 CF                         0.0291   0.6542
 Ivac, M/SEC               23038.3   2046.1
 Isp, M/SEC                   48.3   1086.1


 MOLE FRACTIONS

 *CO              0.34947  0.34946  0.34384
 *CO2             0.17386  0.17388  0.18605
 COOH             0.00001  0.00001  0.00000
 *H               0.02481  0.02481  0.02084
 HCO              0.00001  0.00001  0.00000
 HO2              0.00003  0.00003  0.00001
 *H2              0.07938  0.07938  0.07883
 H2O              0.31211  0.31213  0.32440
 *O               0.00723  0.00723  0.00489
 *OH              0.04203  0.04201  0.03320
 *O2              0.01107  0.01106  0.00791

  * THERMODYNAMIC PROPERTIES FITTED TO 20000.K

    PRODUCTS WHICH WERE CONSIDERED BUT WHOSE MOLE FRACTIONS
    WERE LESS THAN 5.000000E-06 FOR ALL ASSIGNED CONDITIONS

 *C              *CH             CH2             CH3             CH2OH          
 CH3O            CH4             CH3OH           CH3OOH          *C2            
 C2H             C2H2,acetylene  C2H2,vinylidene CH2CO,ketene    O(CH)2O        
 HO(CO)2OH       C2H3,vinyl      CH3CO,acetyl    C2H4            C2H4O,ethylen-o
 CH3CHO,ethanal  CH3COOH         OHCH2COOH       C2H5            C2H6           
 C2H5OH          CH3OCH3         CH3O2CH3        C2O             *C3            
 C3H3,1-propynl  C3H3,2-propynl  C3H4,allene     C3H4,propyne    C3H4,cyclo-    
 C3H5,allyl      C3H6,propylene  C3H6,cyclo-     C3H6O,propylox  C3H6O,acetone  
 C3H6O,propanal  C3H7,n-propyl   C3H7,i-propyl   C3H8            C3H8O,1propanol
 C3H8O,2propanol C3O2            *C4             C4H2,butadiyne  C4H4,1,3-cyclo-
 C4H6,butadiene  C4H6,1butyne    C4H6,2butyne    C4H6,cyclo-     C4H8,1-butene  
 C4H8,cis2-buten C4H8,tr2-butene C4H8,isobutene  C4H8,cyclo-     (CH3COOH)2     
 C4H9,n-butyl    C4H9,i-butyl    C4H9,s-butyl    C4H9,t-butyl    C4H10,n-butane 
 C4H10,isobutane *C5             C5H6,1,3cyclo-  C5H8,cyclo-     C5H10,1-pentene
 C5H10,cyclo-    C5H11,pentyl    C5H11,t-pentyl  C5H12,n-pentane C5H12,i-pentane
 CH3C(CH3)2CH3   C6H2            C6H5,phenyl     C6H5O,phenoxy   C6H6           
 C6H5OH,phenol   C6H10,cyclo-    C6H12,1-hexene  C6H12,cyclo-    C6H13,n-hexyl  
 C6H14,n-hexane  C7H7,benzyl     C7H8            C7H8O,cresol-mx C7H14,1-heptene
 C7H15,n-heptyl  C7H16,n-heptane C7H16,2-methylh C8H8,styrene    C8H10,ethylbenz
 C8H16,1-octene  C8H17,n-octyl   C8H18,n-octane  C8H18,isooctane C9H19,n-nonyl  
 C10H8,naphthale C10H21,n-decyl  C12H9,o-bipheny C12H10,biphenyl HCCO           
 HCHO,formaldehy HCOOH           H2O2            (HCOOH)2        O3             
 C(gr)           H2O(cr)         H2O(L)         

 NOTE. WEIGHT FRACTION OF FUEL IN TOTAL FUELS AND OF OXIDANT IN TOTAL OXIDANTS






 WARNING!!  ASSIGNED pip =   0.00000 IS NOT PERMITTED
 TO BE LESS THAN  Pinj/Pc =  1.00210. POINT OMITTED (ROCKET)





              THEORETICAL ROCKET PERFORMANCE ASSUMING EQUILIBRIUM

            COMPOSITION DURING EXPANSION FROM FINITE AREA COMBUSTOR

 Pin =   209.6 PSIA
 Ac/At = 13.8597      Pinj/Pinf =  1.001049
 CASE =                

             REACTANT                    WT FRACTION      ENERGY      TEMP
                                          (SEE NOTE)     KJ/KG-MOL      K  
 OXIDANT     O2                           0.9828169      1178.139    338.100
 OXIDANT     H2O                          0.0103098   -240480.135    338.100
 OXIDANT     CO2                          0.0068732   -391990.834    338.100
 FUEL        PMMA                         1.0000000   -442140.000    293.150

 O/F=    1.34149  %FUEL= 42.707804  R,EQ.RATIO= 1.361647  PHI,EQ.RATIO= 1.454526

                 INJECTOR  COMB END  THROAT
 Pinj/P            1.0000   1.0021   1.7315
 P, BAR            14.450   14.420   8.3455
 T, K             3265.40  3264.96  3102.38
 RHO, KG/CU M    1.3004 0 1.2979 0 8.0044-1
 H, KJ/KG        -1979.29 -1980.46 -2569.13
 U, KJ/KG        -3090.45 -3091.46 -3611.75
 G, KJ/KG        -38541.5 -38539.0 -37307.2
 S, KJ/(KG)(K)    11.1969  11.1972  11.1972

 M, (1/n)          24.434   24.434   24.740
 (dLV/dLP)t      -1.02979 -1.02978 -1.02350
 (dLV/dLT)p        1.5764   1.5764   1.4795
 Cp, KJ/(KG)(K)    5.7841   5.7842   5.2667
 GAMMAs            1.1318   1.1317   1.1315
 SON VEL,M/SEC     1121.4   1121.3   1086.1
 MACH NUMBER        0.000    0.043    1.000

 PERFORMANCE PARAMETERS

 Ae/At                      13.861   1.0000
 CSTAR, M/SEC               1660.4   1660.4
 CF                         0.0291   0.6542
 Ivac, M/SEC               23038.3   2046.1
 Isp, M/SEC                   48.3   1086.1


 MOLE FRACTIONS

 *CO              0.34947  0.34946  0.34384
 *CO2             0.17386  0.17388  0.18605
 COOH             0.00001  0.00001  0.00000
 *H               0.02481  0.02481  0.02084
 HCO              0.00001  0.00001  0.00000
 HO2              0.00003  0.00003  0.00001
 *H2              0.07938  0.07938  0.07883
 H2O              0.31211  0.31213  0.32440
 *O               0.00723  0.00723  0.00489
 *OH              0.04203  0.04201  0.03320
 *O2              0.01107  0.01106  0.00791

  * THERMODYNAMIC PROPERTIES FITTED TO 20000.K

    PRODUCTS WHICH WERE CONSIDERED BUT WHOSE MOLE FRACTIONS
    WERE LESS THAN 5.000000E-06 FOR ALL ASSIGNED CONDITIONS

 *C              *CH             CH2             CH3             CH2OH          
 CH3O            CH4             CH3OH           CH3OOH          *C2            
 C2H             C2H2,acetylene  C2H2,vinylidene CH2CO,ketene    O(CH)2O        
 HO(CO)2OH       C2H3,vinyl      CH3CO,acetyl    C2H4            C2H4O,ethylen-o
 CH3CHO,ethanal  CH3COOH         OHCH2COOH       C2H5            C2H6           
 C2H5OH          CH3OCH3         CH3O2CH3        C2O             *C3            
 C3H3,1-propynl  C3H3,2-propynl  C3H4,allene     C3H4,propyne    C3H4,cyclo-    
 C3H5,allyl      C3H6,propylene  C3H6,cyclo-     C3H6O,propylox  C3H6O,acetone  
 C3H6O,propanal  C3H7,n-propyl   C3H7,i-propyl   C3H8            C3H8O,1propanol
 C3H8O,2propanol C3O2            *C4             C4H2,butadiyne  C4H4,1,3-cyclo-
 C4H6,butadiene  C4H6,1butyne    C4H6,2butyne    C4H6,cyclo-     C4H8,1-butene  
 C4H8,cis2-buten C4H8,tr2-butene C4H8,isobutene  C4H8,cyclo-     (CH3COOH)2     
 C4H9,n-butyl    C4H9,i-butyl    C4H9,s-butyl    C4H9,t-butyl    C4H10,n-butane 
 C4H10,isobutane *C5             C5H6,1,3cyclo-  C5H8,cyclo-     C5H10,1-pentene
 C5H10,cyclo-    C5H11,pentyl    C5H11,t-pentyl  C5H12,n-pentane C5H12,i-pentane
 CH3C(CH3)2CH3   C6H2            C6H5,phenyl     C6H5O,phenoxy   C6H6           
 C6H5OH,phenol   C6H10,cyclo-    C6H12,1-hexene  C6H12,cyclo-    C6H13,n-hexyl  
 C6H14,n-hexane  C7H7,benzyl     C7H8            C7H8O,cresol-mx C7H14,1-heptene
 C7H15,n-heptyl  C7H16,n-heptane C7H16,2-methylh C8H8,styrene    C8H10,ethylbenz
 C8H16,1-octene  C8H17,n-octyl   C8H18,n-octane  C8H18,isooctane C9H19,n-nonyl  
 C10H8,naphthale C10H21,n-decyl  C12H9,o-bipheny C12H10,biphenyl HCCO           
 HCHO,formaldehy HCOOH           H2O2            (HCOOH)2        O3             
 C(gr)           H2O(cr)         H2O(L)         

 NOTE. WEIGHT FRACTION OF FUEL IN TOTAL FUELS AND OF OXIDANT IN TOTAL OXIDANTS






 WARNING!!  ASSIGNED pip =   0.00000 IS NOT PERMITTED
 TO BE LESS THAN  Pinj/Pc =  1.00210. POINT OMITTED (ROCKET)





              THEORETICAL ROCKET PERFORMANCE ASSUMING EQUILIBRIUM

            COMPOSITION DURING EXPANSION FROM FINITE AREA COMBUSTOR

 Pin =   209.6 PSIA
 Ac/At = 13.8597      Pinj/Pinf =  1.001049
 CASE =                

             REACTANT                    WT FRACTION      ENERGY      TEMP
                                          (SEE NOTE)     KJ/KG-MOL      K  
 OXIDANT     O2                           0.9828169      1178.139    338.100
 OXIDANT     H2O                          0.0103098   -240480.135    338.100
 OXIDANT     CO2                          0.0068732   -391990.834    338.100
 FUEL        PMMA                         1.0000000   -442140.000    293.150

 O/F=    1.34149  %FUEL= 42.707804  R,EQ.RATIO= 1.361647  PHI,EQ.RATIO= 1.454526

                 INJECTOR  COMB END  THROAT
 Pinj/P            1.0000   1.0021   1.7315
 P, BAR            14.450   14.420   8.3455
 T, K             3265.40  3264.96  3102.38
 RHO, KG/CU M    1.3004 0 1.2979 0 8.0044-1
 H, KJ/KG        -1979.29 -1980.46 -2569.13
 U, KJ/KG        -3090.45 -3091.46 -3611.75
 G, KJ/KG        -38541.5 -38539.0 -37307.2
 S, KJ/(KG)(K)    11.1969  11.1972  11.1972

 M, (1/n)          24.434   24.434   24.740
 (dLV/dLP)t      -1.02979 -1.02978 -1.02350
 (dLV/dLT)p        1.5764   1.5764   1.4795
 Cp, KJ/(KG)(K)    5.7841   5.7842   5.2667
 GAMMAs            1.1318   1.1317   1.1315
 SON VEL,M/SEC     1121.4   1121.3   1086.1
 MACH NUMBER        0.000    0.043    1.000

 PERFORMANCE PARAMETERS

 Ae/At                      13.861   1.0000
 CSTAR, M/SEC               1660.4   1660.4
 CF                         0.0291   0.6542
 Ivac, M/SEC               23038.3   2046.1
 Isp, M/SEC                   48.3   1086.1


 MOLE FRACTIONS

 *CO              0.34947  0.34946  0.34384
 *CO2             0.17386  0.17388  0.18605
 COOH             0.00001  0.00001  0.00000
 *H               0.02481  0.02481  0.02084
 HCO              0.00001  0.00001  0.00000
 HO2              0.00003  0.00003  0.00001
 *H2              0.07938  0.07938  0.07883
 H2O              0.31211  0.31213  0.32440
 *O               0.00723  0.00723  0.00489
 *OH              0.04203  0.04201  0.03320
 *O2              0.01107  0.01106  0.00791

  * THERMODYNAMIC PROPERTIES FITTED TO 20000.K

    PRODUCTS WHICH WERE CONSIDERED BUT WHOSE MOLE FRACTIONS
    WERE LESS THAN 5.000000E-06 FOR ALL ASSIGNED CONDITIONS

 *C              *CH             CH2             CH3             CH2OH          
 CH3O            CH4             CH3OH           CH3OOH          *C2            
 C2H             C2H2,acetylene  C2H2,vinylidene CH2CO,ketene    O(CH)2O        
 HO(CO)2OH       C2H3,vinyl      CH3CO,acetyl    C2H4            C2H4O,ethylen-o
 CH3CHO,ethanal  CH3COOH         OHCH2COOH       C2H5            C2H6           
 C2H5OH          CH3OCH3         CH3O2CH3        C2O             *C3            
 C3H3,1-propynl  C3H3,2-propynl  C3H4,allene     C3H4,propyne    C3H4,cyclo-    
 C3H5,allyl      C3H6,propylene  C3H6,cyclo-     C3H6O,propylox  C3H6O,acetone  
 C3H6O,propanal  C3H7,n-propyl   C3H7,i-propyl   C3H8            C3H8O,1propanol
 C3H8O,2propanol C3O2            *C4             C4H2,butadiyne  C4H4,1,3-cyclo-
 C4H6,butadiene  C4H6,1butyne    C4H6,2butyne    C4H6,cyclo-     C4H8,1-butene  
 C4H8,cis2-buten C4H8,tr2-butene C4H8,isobutene  C4H8,cyclo-     (CH3COOH)2     
 C4H9,n-butyl    C4H9,i-butyl    C4H9,s-butyl    C4H9,t-butyl    C4H10,n-butane 
 C4H10,isobutane *C5             C5H6,1,3cyclo-  C5H8,cyclo-     C5H10,1-pentene
 C5H10,cyclo-    C5H11,pentyl    C5H11,t-pentyl  C5H12,n-pentane C5H12,i-pentane
 CH3C(CH3)2CH3   C6H2            C6H5,phenyl     C6H5O,phenoxy   C6H6           
 C6H5OH,phenol   C6H10,cyclo-    C6H12,1-hexene  C6H12,cyclo-    C6H13,n-hexyl  
 C6H14,n-hexane  C7H7,benzyl     C7H8            C7H8O,cresol-mx C7H14,1-heptene
 C7H15,n-heptyl  C7H16,n-heptane C7H16,2-methylh C8H8,styrene    C8H10,ethylbenz
 C8H16,1-octene  C8H17,n-octyl   C8H18,n-octane  C8H18,isooctane C9H19,n-nonyl  
 C10H8,naphthale C10H21,n-decyl  C12H9,o-bipheny C12H10,biphenyl HCCO           
 HCHO,formaldehy HCOOH           H2O2            (HCOOH)2        O3             
 C(gr)           H2O(cr)         H2O(L)         

 NOTE. WEIGHT FRACTION OF FUEL IN TOTAL FUELS AND OF OXIDANT IN TOTAL OXIDANTS






 WARNING!!  ASSIGNED pip =   0.00000 IS NOT PERMITTED
 TO BE LESS THAN  Pinj/Pc =  1.00210. POINT OMITTED (ROCKET)





              THEORETICAL ROCKET PERFORMANCE ASSUMING EQUILIBRIUM

            COMPOSITION DURING EXPANSION FROM FINITE AREA COMBUSTOR

 Pin =   209.6 PSIA
 Ac/At = 13.8597      Pinj/Pinf =  1.001049
 CASE =                

             REACTANT                    WT FRACTION      ENERGY      TEMP
                                          (SEE NOTE)     KJ/KG-MOL      K  
 OXIDANT     O2                           0.9828169      1178.139    338.100
 OXIDANT     H2O                          0.0103098   -240480.135    338.100
 OXIDANT     CO2                          0.0068732   -391990.834    338.100
 FUEL        PMMA                         1.0000000   -442140.000    293.150

 O/F=    1.34149  %FUEL= 42.707804  R,EQ.RATIO= 1.361647  PHI,EQ.RATIO= 1.454526

                 INJECTOR  COMB END  THROAT
 Pinj/P            1.0000   1.0021   1.7315
 P, BAR            14.450   14.420   8.3455
 T, K             3265.40  3264.96  3102.38
 RHO, KG/CU M    1.3004 0 1.2979 0 8.0044-1
 H, KJ/KG        -1979.29 -1980.46 -2569.13
 U, KJ/KG        -3090.45 -3091.46 -3611.75
 G, KJ/KG        -38541.5 -38539.0 -37307.2
 S, KJ/(KG)(K)    11.1969  11.1972  11.1972

 M, (1/n)          24.434   24.434   24.740
 (dLV/dLP)t      -1.02979 -1.02978 -1.02350
 (dLV/dLT)p        1.5764   1.5764   1.4795
 Cp, KJ/(KG)(K)    5.7841   5.7842   5.2667
 GAMMAs            1.1318   1.1317   1.1315
 SON VEL,M/SEC     1121.4   1121.3   1086.1
 MACH NUMBER        0.000    0.043    1.000

 PERFORMANCE PARAMETERS

 Ae/At                      13.861   1.0000
 CSTAR, M/SEC               1660.4   1660.4
 CF                         0.0291   0.6542
 Ivac, M/SEC               23038.3   2046.1
 Isp, M/SEC                   48.3   1086.1


 MOLE FRACTIONS

 *CO              0.34947  0.34946  0.34384
 *CO2             0.17386  0.17388  0.18605
 COOH             0.00001  0.00001  0.00000
 *H               0.02481  0.02481  0.02084
 HCO              0.00001  0.00001  0.00000
 HO2              0.00003  0.00003  0.00001
 *H2              0.07938  0.07938  0.07883
 H2O              0.31211  0.31213  0.32440
 *O               0.00723  0.00723  0.00489
 *OH              0.04203  0.04201  0.03320
 *O2              0.01107  0.01106  0.00791

  * THERMODYNAMIC PROPERTIES FITTED TO 20000.K

    PRODUCTS WHICH WERE CONSIDERED BUT WHOSE MOLE FRACTIONS
    WERE LESS THAN 5.000000E-06 FOR ALL ASSIGNED CONDITIONS

 *C              *CH             CH2             CH3             CH2OH          
 CH3O            CH4             CH3OH           CH3OOH          *C2            
 C2H             C2H2,acetylene  C2H2,vinylidene CH2CO,ketene    O(CH)2O        
 HO(CO)2OH       C2H3,vinyl      CH3CO,acetyl    C2H4            C2H4O,ethylen-o
 CH3CHO,ethanal  CH3COOH         OHCH2COOH       C2H5            C2H6           
 C2H5OH          CH3OCH3         CH3O2CH3        C2O             *C3            
 C3H3,1-propynl  C3H3,2-propynl  C3H4,allene     C3H4,propyne    C3H4,cyclo-    
 C3H5,allyl      C3H6,propylene  C3H6,cyclo-     C3H6O,propylox  C3H6O,acetone  
 C3H6O,propanal  C3H7,n-propyl   C3H7,i-propyl   C3H8            C3H8O,1propanol
 C3H8O,2propanol C3O2            *C4             C4H2,butadiyne  C4H4,1,3-cyclo-
 C4H6,butadiene  C4H6,1butyne    C4H6,2butyne    C4H6,cyclo-     C4H8,1-butene  
 C4H8,cis2-buten C4H8,tr2-butene C4H8,isobutene  C4H8,cyclo-     (CH3COOH)2     
 C4H9,n-butyl    C4H9,i-butyl    C4H9,s-butyl    C4H9,t-butyl    C4H10,n-butane 
 C4H10,isobutane *C5             C5H6,1,3cyclo-  C5H8,cyclo-     C5H10,1-pentene
 C5H10,cyclo-    C5H11,pentyl    C5H11,t-pentyl  C5H12,n-pentane C5H12,i-pentane
 CH3C(CH3)2CH3   C6H2            C6H5,phenyl     C6H5O,phenoxy   C6H6           
 C6H5OH,phenol   C6H10,cyclo-    C6H12,1-hexene  C6H12,cyclo-    C6H13,n-hexyl  
 C6H14,n-hexane  C7H7,benzyl     C7H8            C7H8O,cresol-mx C7H14,1-heptene
 C7H15,n-heptyl  C7H16,n-heptane C7H16,2-methylh C8H8,styrene    C8H10,ethylbenz
 C8H16,1-octene  C8H17,n-octyl   C8H18,n-octane  C8H18,isooctane C9H19,n-nonyl  
 C10H8,naphthale C10H21,n-decyl  C12H9,o-bipheny C12H10,biphenyl HCCO           
 HCHO,formaldehy HCOOH           H2O2            (HCOOH)2        O3             
 C(gr)           H2O(cr)         H2O(L)         

 NOTE. WEIGHT FRACTION OF FUEL IN TOTAL FUELS AND OF OXIDANT IN TOTAL OXIDANTS






 WARNING!!  ASSIGNED pip =   0.00000 IS NOT PERMITTED
 TO BE LESS THAN  Pinj/Pc =  1.00210. POINT OMITTED (ROCKET)





              THEORETICAL ROCKET PERFORMANCE ASSUMING EQUILIBRIUM

            COMPOSITION DURING EXPANSION FROM FINITE AREA COMBUSTOR

 Pin =   209.6 PSIA
 Ac/At = 13.8597      Pinj/Pinf =  1.001049
 CASE =                

             REACTANT                    WT FRACTION      ENERGY      TEMP
                                          (SEE NOTE)     KJ/KG-MOL      K  
 OXIDANT     O2                           0.9828169      1178.139    338.100
 OXIDANT     H2O                          0.0103098   -240480.135    338.100
 OXIDANT     CO2                          0.0068732   -391990.834    338.100
 FUEL        PMMA                         1.0000000   -442140.000    293.150

 O/F=    1.34149  %FUEL= 42.707804  R,EQ.RATIO= 1.361647  PHI,EQ.RATIO= 1.454526

                 INJECTOR  COMB END  THROAT
 Pinj/P            1.0000   1.0021   1.7315
 P, BAR            14.450   14.420   8.3455
 T, K             3265.40  3264.96  3102.38
 RHO, KG/CU M    1.3004 0 1.2979 0 8.0044-1
 H, KJ/KG        -1979.29 -1980.46 -2569.13
 U, KJ/KG        -3090.45 -3091.46 -3611.75
 G, KJ/KG        -38541.5 -38539.0 -37307.2
 S, KJ/(KG)(K)    11.1969  11.1972  11.1972

 M, (1/n)          24.434   24.434   24.740
 (dLV/dLP)t      -1.02979 -1.02978 -1.02350
 (dLV/dLT)p        1.5764   1.5764   1.4795
 Cp, KJ/(KG)(K)    5.7841   5.7842   5.2667
 GAMMAs            1.1318   1.1317   1.1315
 SON VEL,M/SEC     1121.4   1121.3   1086.1
 MACH NUMBER        0.000    0.043    1.000

 PERFORMANCE PARAMETERS

 Ae/At                      13.861   1.0000
 CSTAR, M/SEC               1660.4   1660.4
 CF                         0.0291   0.6542
 Ivac, M/SEC               23038.3   2046.1
 Isp, M/SEC                   48.3   1086.1


 MOLE FRACTIONS

 *CO              0.34947  0.34946  0.34384
 *CO2             0.17386  0.17388  0.18605
 COOH             0.00001  0.00001  0.00000
 *H               0.02481  0.02481  0.02084
 HCO              0.00001  0.00001  0.00000
 HO2              0.00003  0.00003  0.00001
 *H2              0.07938  0.07938  0.07883
 H2O              0.31211  0.31213  0.32440
 *O               0.00723  0.00723  0.00489
 *OH              0.04203  0.04201  0.03320
 *O2              0.01107  0.01106  0.00791

  * THERMODYNAMIC PROPERTIES FITTED TO 20000.K

    PRODUCTS WHICH WERE CONSIDERED BUT WHOSE MOLE FRACTIONS
    WERE LESS THAN 5.000000E-06 FOR ALL ASSIGNED CONDITIONS

 *C              *CH             CH2             CH3             CH2OH          
 CH3O            CH4             CH3OH           CH3OOH          *C2            
 C2H             C2H2,acetylene  C2H2,vinylidene CH2CO,ketene    O(CH)2O        
 HO(CO)2OH       C2H3,vinyl      CH3CO,acetyl    C2H4            C2H4O,ethylen-o
 CH3CHO,ethanal  CH3COOH         OHCH2COOH       C2H5            C2H6           
 C2H5OH          CH3OCH3         CH3O2CH3        C2O             *C3            
 C3H3,1-propynl  C3H3,2-propynl  C3H4,allene     C3H4,propyne    C3H4,cyclo-    
 C3H5,allyl      C3H6,propylene  C3H6,cyclo-     C3H6O,propylox  C3H6O,acetone  
 C3H6O,propanal  C3H7,n-propyl   C3H7,i-propyl   C3H8            C3H8O,1propanol
 C3H8O,2propanol C3O2            *C4             C4H2,butadiyne  C4H4,1,3-cyclo-
 C4H6,butadiene  C4H6,1butyne    C4H6,2butyne    C4H6,cyclo-     C4H8,1-butene  
 C4H8,cis2-buten C4H8,tr2-butene C4H8,isobutene  C4H8,cyclo-     (CH3COOH)2     
 C4H9,n-butyl    C4H9,i-butyl    C4H9,s-butyl    C4H9,t-butyl    C4H10,n-butane 
 C4H10,isobutane *C5             C5H6,1,3cyclo-  C5H8,cyclo-     C5H10,1-pentene
 C5H10,cyclo-    C5H11,pentyl    C5H11,t-pentyl  C5H12,n-pentane C5H12,i-pentane
 CH3C(CH3)2CH3   C6H2            C6H5,phenyl     C6H5O,phenoxy   C6H6           
 C6H5OH,phenol   C6H10,cyclo-    C6H12,1-hexene  C6H12,cyclo-    C6H13,n-hexyl  
 C6H14,n-hexane  C7H7,benzyl     C7H8            C7H8O,cresol-mx C7H14,1-heptene
 C7H15,n-heptyl  C7H16,n-heptane C7H16,2-methylh C8H8,styrene    C8H10,ethylbenz
 C8H16,1-octene  C8H17,n-octyl   C8H18,n-octane  C8H18,isooctane C9H19,n-nonyl  
 C10H8,naphthale C10H21,n-decyl  C12H9,o-bipheny C12H10,biphenyl HCCO           
 HCHO,formaldehy HCOOH           H2O2            (HCOOH)2        O3             
 C(gr)           H2O(cr)         H2O(L)         

 NOTE. WEIGHT FRACTION OF FUEL IN TOTAL FUELS AND OF OXIDANT IN TOTAL OXIDANTS






 WARNING!!  ASSIGNED pip =   0.00000 IS NOT PERMITTED
 TO BE LESS THAN  Pinj/Pc =  1.00210. POINT OMITTED (ROCKET)





              THEORETICAL ROCKET PERFORMANCE ASSUMING EQUILIBRIUM

            COMPOSITION DURING EXPANSION FROM FINITE AREA COMBUSTOR

 Pin =   209.6 PSIA
 Ac/At = 13.8597      Pinj/Pinf =  1.001049
 CASE =                

             REACTANT                    WT FRACTION      ENERGY      TEMP
                                          (SEE NOTE)     KJ/KG-MOL      K  
 OXIDANT     O2                           0.9828169      1178.139    338.100
 OXIDANT     H2O                          0.0103098   -240480.135    338.100
 OXIDANT     CO2                          0.0068732   -391990.834    338.100
 FUEL        PMMA                         1.0000000   -442140.000    293.150

 O/F=    1.34149  %FUEL= 42.707804  R,EQ.RATIO= 1.361647  PHI,EQ.RATIO= 1.454526

                 INJECTOR  COMB END  THROAT
 Pinj/P            1.0000   1.0021   1.7315
 P, BAR            14.450   14.420   8.3455
 T, K             3265.40  3264.96  3102.38
 RHO, KG/CU M    1.3004 0 1.2979 0 8.0044-1
 H, KJ/KG        -1979.29 -1980.46 -2569.13
 U, KJ/KG        -3090.45 -3091.46 -3611.75
 G, KJ/KG        -38541.5 -38539.0 -37307.2
 S, KJ/(KG)(K)    11.1969  11.1972  11.1972

 M, (1/n)          24.434   24.434   24.740
 (dLV/dLP)t      -1.02979 -1.02978 -1.02350
 (dLV/dLT)p        1.5764   1.5764   1.4795
 Cp, KJ/(KG)(K)    5.7841   5.7842   5.2667
 GAMMAs            1.1318   1.1317   1.1315
 SON VEL,M/SEC     1121.4   1121.3   1086.1
 MACH NUMBER        0.000    0.043    1.000

 PERFORMANCE PARAMETERS

 Ae/At                      13.861   1.0000
 CSTAR, M/SEC               1660.4   1660.4
 CF                         0.0291   0.6542
 Ivac, M/SEC               23038.3   2046.1
 Isp, M/SEC                   48.3   1086.1


 MOLE FRACTIONS

 *CO              0.34947  0.34946  0.34384
 *CO2             0.17386  0.17388  0.18605
 COOH             0.00001  0.00001  0.00000
 *H               0.02481  0.02481  0.02084
 HCO              0.00001  0.00001  0.00000
 HO2              0.00003  0.00003  0.00001
 *H2              0.07938  0.07938  0.07883
 H2O              0.31211  0.31213  0.32440
 *O               0.00723  0.00723  0.00489
 *OH              0.04203  0.04201  0.03320
 *O2              0.01107  0.01106  0.00791

  * THERMODYNAMIC PROPERTIES FITTED TO 20000.K

    PRODUCTS WHICH WERE CONSIDERED BUT WHOSE MOLE FRACTIONS
    WERE LESS THAN 5.000000E-06 FOR ALL ASSIGNED CONDITIONS

 *C              *CH             CH2             CH3             CH2OH          
 CH3O            CH4             CH3OH           CH3OOH          *C2            
 C2H             C2H2,acetylene  C2H2,vinylidene CH2CO,ketene    O(CH)2O        
 HO(CO)2OH       C2H3,vinyl      CH3CO,acetyl    C2H4            C2H4O,ethylen-o
 CH3CHO,ethanal  CH3COOH         OHCH2COOH       C2H5            C2H6           
 C2H5OH          CH3OCH3         CH3O2CH3        C2O             *C3            
 C3H3,1-propynl  C3H3,2-propynl  C3H4,allene     C3H4,propyne    C3H4,cyclo-    
 C3H5,allyl      C3H6,propylene  C3H6,cyclo-     C3H6O,propylox  C3H6O,acetone  
 C3H6O,propanal  C3H7,n-propyl   C3H7,i-propyl   C3H8            C3H8O,1propanol
 C3H8O,2propanol C3O2            *C4             C4H2,butadiyne  C4H4,1,3-cyclo-
 C4H6,butadiene  C4H6,1butyne    C4H6,2butyne    C4H6,cyclo-     C4H8,1-butene  
 C4H8,cis2-buten C4H8,tr2-butene C4H8,isobutene  C4H8,cyclo-     (CH3COOH)2     
 C4H9,n-butyl    C4H9,i-butyl    C4H9,s-butyl    C4H9,t-butyl    C4H10,n-butane 
 C4H10,isobutane *C5             C5H6,1,3cyclo-  C5H8,cyclo-     C5H10,1-pentene
 C5H10,cyclo-    C5H11,pentyl    C5H11,t-pentyl  C5H12,n-pentane C5H12,i-pentane
 CH3C(CH3)2CH3   C6H2            C6H5,phenyl     C6H5O,phenoxy   C6H6           
 C6H5OH,phenol   C6H10,cyclo-    C6H12,1-hexene  C6H12,cyclo-    C6H13,n-hexyl  
 C6H14,n-hexane  C7H7,benzyl     C7H8            C7H8O,cresol-mx C7H14,1-heptene
 C7H15,n-heptyl  C7H16,n-heptane C7H16,2-methylh C8H8,styrene    C8H10,ethylbenz
 C8H16,1-octene  C8H17,n-octyl   C8H18,n-octane  C8H18,isooctane C9H19,n-nonyl  
 C10H8,naphthale C10H21,n-decyl  C12H9,o-bipheny C12H10,biphenyl HCCO           
 HCHO,formaldehy HCOOH           H2O2            (HCOOH)2        O3             
 C(gr)           H2O(cr)         H2O(L)         

 NOTE. WEIGHT FRACTION OF FUEL IN TOTAL FUELS AND OF OXIDANT IN TOTAL OXIDANTS






 WARNING!!  ASSIGNED pip =   0.00000 IS NOT PERMITTED
 TO BE LESS THAN  Pinj/Pc =  1.00210. POINT OMITTED (ROCKET)





              THEORETICAL ROCKET PERFORMANCE ASSUMING EQUILIBRIUM

            COMPOSITION DURING EXPANSION FROM FINITE AREA COMBUSTOR

 Pin =   209.6 PSIA
 Ac/At = 13.8597      Pinj/Pinf =  1.001049
 CASE =                

             REACTANT                    WT FRACTION      ENERGY      TEMP
                                          (SEE NOTE)     KJ/KG-MOL      K  
 OXIDANT     O2                           0.9828169      1178.139    338.100
 OXIDANT     H2O                          0.0103098   -240480.135    338.100
 OXIDANT     CO2                          0.0068732   -391990.834    338.100
 FUEL        PMMA                         1.0000000   -442140.000    293.150

 O/F=    1.34149  %FUEL= 42.707804  R,EQ.RATIO= 1.361647  PHI,EQ.RATIO= 1.454526

                 INJECTOR  COMB END  THROAT
 Pinj/P            1.0000   1.0021   1.7315
 P, BAR            14.450   14.420   8.3455
 T, K             3265.40  3264.96  3102.38
 RHO, KG/CU M    1.3004 0 1.2979 0 8.0044-1
 H, KJ/KG        -1979.29 -1980.46 -2569.13
 U, KJ/KG        -3090.45 -3091.46 -3611.75
 G, KJ/KG        -38541.5 -38539.0 -37307.2
 S, KJ/(KG)(K)    11.1969  11.1972  11.1972

 M, (1/n)          24.434   24.434   24.740
 (dLV/dLP)t      -1.02979 -1.02978 -1.02350
 (dLV/dLT)p        1.5764   1.5764   1.4795
 Cp, KJ/(KG)(K)    5.7841   5.7842   5.2667
 GAMMAs            1.1318   1.1317   1.1315
 SON VEL,M/SEC     1121.4   1121.3   1086.1
 MACH NUMBER        0.000    0.043    1.000

 PERFORMANCE PARAMETERS

 Ae/At                      13.861   1.0000
 CSTAR, M/SEC               1660.4   1660.4
 CF                         0.0291   0.6542
 Ivac, M/SEC               23038.3   2046.1
 Isp, M/SEC                   48.3   1086.1


 MOLE FRACTIONS

 *CO              0.34947  0.34946  0.34384
 *CO2             0.17386  0.17388  0.18605
 COOH             0.00001  0.00001  0.00000
 *H               0.02481  0.02481  0.02084
 HCO              0.00001  0.00001  0.00000
 HO2              0.00003  0.00003  0.00001
 *H2              0.07938  0.07938  0.07883
 H2O              0.31211  0.31213  0.32440
 *O               0.00723  0.00723  0.00489
 *OH              0.04203  0.04201  0.03320
 *O2              0.01107  0.01106  0.00791

  * THERMODYNAMIC PROPERTIES FITTED TO 20000.K

    PRODUCTS WHICH WERE CONSIDERED BUT WHOSE MOLE FRACTIONS
    WERE LESS THAN 5.000000E-06 FOR ALL ASSIGNED CONDITIONS

 *C              *CH             CH2             CH3             CH2OH          
 CH3O            CH4             CH3OH           CH3OOH          *C2            
 C2H             C2H2,acetylene  C2H2,vinylidene CH2CO,ketene    O(CH)2O        
 HO(CO)2OH       C2H3,vinyl      CH3CO,acetyl    C2H4            C2H4O,ethylen-o
 CH3CHO,ethanal  CH3COOH         OHCH2COOH       C2H5            C2H6           
 C2H5OH          CH3OCH3         CH3O2CH3        C2O             *C3            
 C3H3,1-propynl  C3H3,2-propynl  C3H4,allene     C3H4,propyne    C3H4,cyclo-    
 C3H5,allyl      C3H6,propylene  C3H6,cyclo-     C3H6O,propylox  C3H6O,acetone  
 C3H6O,propanal  C3H7,n-propyl   C3H7,i-propyl   C3H8            C3H8O,1propanol
 C3H8O,2propanol C3O2            *C4             C4H2,butadiyne  C4H4,1,3-cyclo-
 C4H6,butadiene  C4H6,1butyne    C4H6,2butyne    C4H6,cyclo-     C4H8,1-butene  
 C4H8,cis2-buten C4H8,tr2-butene C4H8,isobutene  C4H8,cyclo-     (CH3COOH)2     
 C4H9,n-butyl    C4H9,i-butyl    C4H9,s-butyl    C4H9,t-butyl    C4H10,n-butane 
 C4H10,isobutane *C5             C5H6,1,3cyclo-  C5H8,cyclo-     C5H10,1-pentene
 C5H10,cyclo-    C5H11,pentyl    C5H11,t-pentyl  C5H12,n-pentane C5H12,i-pentane
 CH3C(CH3)2CH3   C6H2            C6H5,phenyl     C6H5O,phenoxy   C6H6           
 C6H5OH,phenol   C6H10,cyclo-    C6H12,1-hexene  C6H12,cyclo-    C6H13,n-hexyl  
 C6H14,n-hexane  C7H7,benzyl     C7H8            C7H8O,cresol-mx C7H14,1-heptene
 C7H15,n-heptyl  C7H16,n-heptane C7H16,2-methylh C8H8,styrene    C8H10,ethylbenz
 C8H16,1-octene  C8H17,n-octyl   C8H18,n-octane  C8H18,isooctane C9H19,n-nonyl  
 C10H8,naphthale C10H21,n-decyl  C12H9,o-bipheny C12H10,biphenyl HCCO           
 HCHO,formaldehy HCOOH           H2O2            (HCOOH)2        O3             
 C(gr)           H2O(cr)         H2O(L)         

 NOTE. WEIGHT FRACTION OF FUEL IN TOTAL FUELS AND OF OXIDANT IN TOTAL OXIDANTS






 WARNING!!  ASSIGNED pip =   0.00000 IS NOT PERMITTED
 TO BE LESS THAN  Pinj/Pc =  1.00210. POINT OMITTED (ROCKET)





              THEORETICAL ROCKET PERFORMANCE ASSUMING EQUILIBRIUM

            COMPOSITION DURING EXPANSION FROM FINITE AREA COMBUSTOR

 Pin =   209.6 PSIA
 Ac/At = 13.8597      Pinj/Pinf =  1.001049
 CASE =                

             REACTANT                    WT FRACTION      ENERGY      TEMP
                                          (SEE NOTE)     KJ/KG-MOL      K  
 OXIDANT     O2                           0.9828169      1178.139    338.100
 OXIDANT     H2O                          0.0103098   -240480.135    338.100
 OXIDANT     CO2                          0.0068732   -391990.834    338.100
 FUEL        PMMA                         1.0000000   -442140.000    293.150

 O/F=    1.34149  %FUEL= 42.707804  R,EQ.RATIO= 1.361647  PHI,EQ.RATIO= 1.454526

                 INJECTOR  COMB END  THROAT
 Pinj/P            1.0000   1.0021   1.7315
 P, BAR            14.450   14.420   8.3455
 T, K             3265.40  3264.96  3102.38
 RHO, KG/CU M    1.3004 0 1.2979 0 8.0044-1
 H, KJ/KG        -1979.29 -1980.46 -2569.13
 U, KJ/KG        -3090.45 -3091.46 -3611.75
 G, KJ/KG        -38541.5 -38539.0 -37307.2
 S, KJ/(KG)(K)    11.1969  11.1972  11.1972

 M, (1/n)          24.434   24.434   24.740
 (dLV/dLP)t      -1.02979 -1.02978 -1.02350
 (dLV/dLT)p        1.5764   1.5764   1.4795
 Cp, KJ/(KG)(K)    5.7841   5.7842   5.2667
 GAMMAs            1.1318   1.1317   1.1315
 SON VEL,M/SEC     1121.4   1121.3   1086.1
 MACH NUMBER        0.000    0.043    1.000

 PERFORMANCE PARAMETERS

 Ae/At                      13.861   1.0000
 CSTAR, M/SEC               1660.4   1660.4
 CF                         0.0291   0.6542
 Ivac, M/SEC               23038.3   2046.1
 Isp, M/SEC                   48.3   1086.1


 MOLE FRACTIONS

 *CO              0.34947  0.34946  0.34384
 *CO2             0.17386  0.17388  0.18605
 COOH             0.00001  0.00001  0.00000
 *H               0.02481  0.02481  0.02084
 HCO              0.00001  0.00001  0.00000
 HO2              0.00003  0.00003  0.00001
 *H2              0.07938  0.07938  0.07883
 H2O              0.31211  0.31213  0.32440
 *O               0.00723  0.00723  0.00489
 *OH              0.04203  0.04201  0.03320
 *O2              0.01107  0.01106  0.00791

  * THERMODYNAMIC PROPERTIES FITTED TO 20000.K

    PRODUCTS WHICH WERE CONSIDERED BUT WHOSE MOLE FRACTIONS
    WERE LESS THAN 5.000000E-06 FOR ALL ASSIGNED CONDITIONS

 *C              *CH             CH2             CH3             CH2OH          
 CH3O            CH4             CH3OH           CH3OOH          *C2            
 C2H             C2H2,acetylene  C2H2,vinylidene CH2CO,ketene    O(CH)2O        
 HO(CO)2OH       C2H3,vinyl      CH3CO,acetyl    C2H4            C2H4O,ethylen-o
 CH3CHO,ethanal  CH3COOH         OHCH2COOH       C2H5            C2H6           
 C2H5OH          CH3OCH3         CH3O2CH3        C2O             *C3            
 C3H3,1-propynl  C3H3,2-propynl  C3H4,allene     C3H4,propyne    C3H4,cyclo-    
 C3H5,allyl      C3H6,propylene  C3H6,cyclo-     C3H6O,propylox  C3H6O,acetone  
 C3H6O,propanal  C3H7,n-propyl   C3H7,i-propyl   C3H8            C3H8O,1propanol
 C3H8O,2propanol C3O2            *C4             C4H2,butadiyne  C4H4,1,3-cyclo-
 C4H6,butadiene  C4H6,1butyne    C4H6,2butyne    C4H6,cyclo-     C4H8,1-butene  
 C4H8,cis2-buten C4H8,tr2-butene C4H8,isobutene  C4H8,cyclo-     (CH3COOH)2     
 C4H9,n-butyl    C4H9,i-butyl    C4H9,s-butyl    C4H9,t-butyl    C4H10,n-butane 
 C4H10,isobutane *C5             C5H6,1,3cyclo-  C5H8,cyclo-     C5H10,1-pentene
 C5H10,cyclo-    C5H11,pentyl    C5H11,t-pentyl  C5H12,n-pentane C5H12,i-pentane
 CH3C(CH3)2CH3   C6H2            C6H5,phenyl     C6H5O,phenoxy   C6H6           
 C6H5OH,phenol   C6H10,cyclo-    C6H12,1-hexene  C6H12,cyclo-    C6H13,n-hexyl  
 C6H14,n-hexane  C7H7,benzyl     C7H8            C7H8O,cresol-mx C7H14,1-heptene
 C7H15,n-heptyl  C7H16,n-heptane C7H16,2-methylh C8H8,styrene    C8H10,ethylbenz
 C8H16,1-octene  C8H17,n-octyl   C8H18,n-octane  C8H18,isooctane C9H19,n-nonyl  
 C10H8,naphthale C10H21,n-decyl  C12H9,o-bipheny C12H10,biphenyl HCCO           
 HCHO,formaldehy HCOOH           H2O2            (HCOOH)2        O3             
 C(gr)           H2O(cr)         H2O(L)         

 NOTE. WEIGHT FRACTION OF FUEL IN TOTAL FUELS AND OF OXIDANT IN TOTAL OXIDANTS






 WARNING!!  ASSIGNED pip =   0.00000 IS NOT PERMITTED
 TO BE LESS THAN  Pinj/Pc =  1.00210. POINT OMITTED (ROCKET)





              THEORETICAL ROCKET PERFORMANCE ASSUMING EQUILIBRIUM

            COMPOSITION DURING EXPANSION FROM FINITE AREA COMBUSTOR

 Pin =   209.6 PSIA
 Ac/At = 13.8597      Pinj/Pinf =  1.001049
 CASE =                

             REACTANT                    WT FRACTION      ENERGY      TEMP
                                          (SEE NOTE)     KJ/KG-MOL      K  
 OXIDANT     O2                           0.9828169      1178.139    338.100
 OXIDANT     H2O                          0.0103098   -240480.135    338.100
 OXIDANT     CO2                          0.0068732   -391990.834    338.100
 FUEL        PMMA                         1.0000000   -442140.000    293.150

 O/F=    1.34149  %FUEL= 42.707804  R,EQ.RATIO= 1.361647  PHI,EQ.RATIO= 1.454526

                 INJECTOR  COMB END  THROAT
 Pinj/P            1.0000   1.0021   1.7315
 P, BAR            14.450   14.420   8.3455
 T, K             3265.40  3264.96  3102.38
 RHO, KG/CU M    1.3004 0 1.2979 0 8.0044-1
 H, KJ/KG        -1979.29 -1980.46 -2569.13
 U, KJ/KG        -3090.45 -3091.46 -3611.75
 G, KJ/KG        -38541.5 -38539.0 -37307.2
 S, KJ/(KG)(K)    11.1969  11.1972  11.1972

 M, (1/n)          24.434   24.434   24.740
 (dLV/dLP)t      -1.02979 -1.02978 -1.02350
 (dLV/dLT)p        1.5764   1.5764   1.4795
 Cp, KJ/(KG)(K)    5.7841   5.7842   5.2667
 GAMMAs            1.1318   1.1317   1.1315
 SON VEL,M/SEC     1121.4   1121.3   1086.1
 MACH NUMBER        0.000    0.043    1.000

 PERFORMANCE PARAMETERS

 Ae/At                      13.861   1.0000
 CSTAR, M/SEC               1660.4   1660.4
 CF                         0.0291   0.6542
 Ivac, M/SEC               23038.3   2046.1
 Isp, M/SEC                   48.3   1086.1


 MOLE FRACTIONS

 *CO              0.34947  0.34946  0.34384
 *CO2             0.17386  0.17388  0.18605
 COOH             0.00001  0.00001  0.00000
 *H               0.02481  0.02481  0.02084
 HCO              0.00001  0.00001  0.00000
 HO2              0.00003  0.00003  0.00001
 *H2              0.07938  0.07938  0.07883
 H2O              0.31211  0.31213  0.32440
 *O               0.00723  0.00723  0.00489
 *OH              0.04203  0.04201  0.03320
 *O2              0.01107  0.01106  0.00791

  * THERMODYNAMIC PROPERTIES FITTED TO 20000.K

    PRODUCTS WHICH WERE CONSIDERED BUT WHOSE MOLE FRACTIONS
    WERE LESS THAN 5.000000E-06 FOR ALL ASSIGNED CONDITIONS

 *C              *CH             CH2             CH3             CH2OH          
 CH3O            CH4             CH3OH           CH3OOH          *C2            
 C2H             C2H2,acetylene  C2H2,vinylidene CH2CO,ketene    O(CH)2O        
 HO(CO)2OH       C2H3,vinyl      CH3CO,acetyl    C2H4            C2H4O,ethylen-o
 CH3CHO,ethanal  CH3COOH         OHCH2COOH       C2H5            C2H6           
 C2H5OH          CH3OCH3         CH3O2CH3        C2O             *C3            
 C3H3,1-propynl  C3H3,2-propynl  C3H4,allene     C3H4,propyne    C3H4,cyclo-    
 C3H5,allyl      C3H6,propylene  C3H6,cyclo-     C3H6O,propylox  C3H6O,acetone  
 C3H6O,propanal  C3H7,n-propyl   C3H7,i-propyl   C3H8            C3H8O,1propanol
 C3H8O,2propanol C3O2            *C4             C4H2,butadiyne  C4H4,1,3-cyclo-
 C4H6,butadiene  C4H6,1butyne    C4H6,2butyne    C4H6,cyclo-     C4H8,1-butene  
 C4H8,cis2-buten C4H8,tr2-butene C4H8,isobutene  C4H8,cyclo-     (CH3COOH)2     
 C4H9,n-butyl    C4H9,i-butyl    C4H9,s-butyl    C4H9,t-butyl    C4H10,n-butane 
 C4H10,isobutane *C5             C5H6,1,3cyclo-  C5H8,cyclo-     C5H10,1-pentene
 C5H10,cyclo-    C5H11,pentyl    C5H11,t-pentyl  C5H12,n-pentane C5H12,i-pentane
 CH3C(CH3)2CH3   C6H2            C6H5,phenyl     C6H5O,phenoxy   C6H6           
 C6H5OH,phenol   C6H10,cyclo-    C6H12,1-hexene  C6H12,cyclo-    C6H13,n-hexyl  
 C6H14,n-hexane  C7H7,benzyl     C7H8            C7H8O,cresol-mx C7H14,1-heptene
 C7H15,n-heptyl  C7H16,n-heptane C7H16,2-methylh C8H8,styrene    C8H10,ethylbenz
 C8H16,1-octene  C8H17,n-octyl   C8H18,n-octane  C8H18,isooctane C9H19,n-nonyl  
 C10H8,naphthale C10H21,n-decyl  C12H9,o-bipheny C12H10,biphenyl HCCO           
 HCHO,formaldehy HCOOH           H2O2            (HCOOH)2        O3             
 C(gr)           H2O(cr)         H2O(L)         

 NOTE. WEIGHT FRACTION OF FUEL IN TOTAL FUELS AND OF OXIDANT IN TOTAL OXIDANTS






 WARNING!!  ASSIGNED pip =   0.00000 IS NOT PERMITTED
 TO BE LESS THAN  Pinj/Pc =  1.00210. POINT OMITTED (ROCKET)





              THEORETICAL ROCKET PERFORMANCE ASSUMING EQUILIBRIUM

            COMPOSITION DURING EXPANSION FROM FINITE AREA COMBUSTOR

 Pin =   209.6 PSIA
 Ac/At = 13.8597      Pinj/Pinf =  1.001049
 CASE =                

             REACTANT                    WT FRACTION      ENERGY      TEMP
                                          (SEE NOTE)     KJ/KG-MOL      K  
 OXIDANT     O2                           0.9828169      1178.139    338.100
 OXIDANT     H2O                          0.0103098   -240480.135    338.100
 OXIDANT     CO2                          0.0068732   -391990.834    338.100
 FUEL        PMMA                         1.0000000   -442140.000    293.150

 O/F=    1.34149  %FUEL= 42.707804  R,EQ.RATIO= 1.361647  PHI,EQ.RATIO= 1.454526

                 INJECTOR  COMB END  THROAT
 Pinj/P            1.0000   1.0021   1.7315
 P, BAR            14.450   14.420   8.3455
 T, K             3265.40  3264.96  3102.38
 RHO, KG/CU M    1.3004 0 1.2979 0 8.0044-1
 H, KJ/KG        -1979.29 -1980.46 -2569.13
 U, KJ/KG        -3090.45 -3091.46 -3611.75
 G, KJ/KG        -38541.5 -38539.0 -37307.2
 S, KJ/(KG)(K)    11.1969  11.1972  11.1972

 M, (1/n)          24.434   24.434   24.740
 (dLV/dLP)t      -1.02979 -1.02978 -1.02350
 (dLV/dLT)p        1.5764   1.5764   1.4795
 Cp, KJ/(KG)(K)    5.7841   5.7842   5.2667
 GAMMAs            1.1318   1.1317   1.1315
 SON VEL,M/SEC     1121.4   1121.3   1086.1
 MACH NUMBER        0.000    0.043    1.000

 PERFORMANCE PARAMETERS

 Ae/At                      13.861   1.0000
 CSTAR, M/SEC               1660.4   1660.4
 CF                         0.0291   0.6542
 Ivac, M/SEC               23038.3   2046.1
 Isp, M/SEC                   48.3   1086.1


 MOLE FRACTIONS

 *CO              0.34947  0.34946  0.34384
 *CO2             0.17386  0.17388  0.18605
 COOH             0.00001  0.00001  0.00000
 *H               0.02481  0.02481  0.02084
 HCO              0.00001  0.00001  0.00000
 HO2              0.00003  0.00003  0.00001
 *H2              0.07938  0.07938  0.07883
 H2O              0.31211  0.31213  0.32440
 *O               0.00723  0.00723  0.00489
 *OH              0.04203  0.04201  0.03320
 *O2              0.01107  0.01106  0.00791

  * THERMODYNAMIC PROPERTIES FITTED TO 20000.K

    PRODUCTS WHICH WERE CONSIDERED BUT WHOSE MOLE FRACTIONS
    WERE LESS THAN 5.000000E-06 FOR ALL ASSIGNED CONDITIONS

 *C              *CH             CH2             CH3             CH2OH          
 CH3O            CH4             CH3OH           CH3OOH          *C2            
 C2H             C2H2,acetylene  C2H2,vinylidene CH2CO,ketene    O(CH)2O        
 HO(CO)2OH       C2H3,vinyl      CH3CO,acetyl    C2H4            C2H4O,ethylen-o
 CH3CHO,ethanal  CH3COOH         OHCH2COOH       C2H5            C2H6           
 C2H5OH          CH3OCH3         CH3O2CH3        C2O             *C3            
 C3H3,1-propynl  C3H3,2-propynl  C3H4,allene     C3H4,propyne    C3H4,cyclo-    
 C3H5,allyl      C3H6,propylene  C3H6,cyclo-     C3H6O,propylox  C3H6O,acetone  
 C3H6O,propanal  C3H7,n-propyl   C3H7,i-propyl   C3H8            C3H8O,1propanol
 C3H8O,2propanol C3O2            *C4             C4H2,butadiyne  C4H4,1,3-cyclo-
 C4H6,butadiene  C4H6,1butyne    C4H6,2butyne    C4H6,cyclo-     C4H8,1-butene  
 C4H8,cis2-buten C4H8,tr2-butene C4H8,isobutene  C4H8,cyclo-     (CH3COOH)2     
 C4H9,n-butyl    C4H9,i-butyl    C4H9,s-butyl    C4H9,t-butyl    C4H10,n-butane 
 C4H10,isobutane *C5             C5H6,1,3cyclo-  C5H8,cyclo-     C5H10,1-pentene
 C5H10,cyclo-    C5H11,pentyl    C5H11,t-pentyl  C5H12,n-pentane C5H12,i-pentane
 CH3C(CH3)2CH3   C6H2            C6H5,phenyl     C6H5O,phenoxy   C6H6           
 C6H5OH,phenol   C6H10,cyclo-    C6H12,1-hexene  C6H12,cyclo-    C6H13,n-hexyl  
 C6H14,n-hexane  C7H7,benzyl     C7H8            C7H8O,cresol-mx C7H14,1-heptene
 C7H15,n-heptyl  C7H16,n-heptane C7H16,2-methylh C8H8,styrene    C8H10,ethylbenz
 C8H16,1-octene  C8H17,n-octyl   C8H18,n-octane  C8H18,isooctane C9H19,n-nonyl  
 C10H8,naphthale C10H21,n-decyl  C12H9,o-bipheny C12H10,biphenyl HCCO           
 HCHO,formaldehy HCOOH           H2O2            (HCOOH)2        O3             
 C(gr)           H2O(cr)         H2O(L)         

 NOTE. WEIGHT FRACTION OF FUEL IN TOTAL FUELS AND OF OXIDANT IN TOTAL OXIDANTS






 WARNING!!  ASSIGNED pip =   0.00000 IS NOT PERMITTED
 TO BE LESS THAN  Pinj/Pc =  1.00210. POINT OMITTED (ROCKET)





              THEORETICAL ROCKET PERFORMANCE ASSUMING EQUILIBRIUM

            COMPOSITION DURING EXPANSION FROM FINITE AREA COMBUSTOR

 Pin =   209.6 PSIA
 Ac/At = 13.8597      Pinj/Pinf =  1.001049
 CASE =                

             REACTANT                    WT FRACTION      ENERGY      TEMP
                                          (SEE NOTE)     KJ/KG-MOL      K  
 OXIDANT     O2                           0.9828169      1178.139    338.100
 OXIDANT     H2O                          0.0103098   -240480.135    338.100
 OXIDANT     CO2                          0.0068732   -391990.834    338.100
 FUEL        PMMA                         1.0000000   -442140.000    293.150

 O/F=    1.34149  %FUEL= 42.707804  R,EQ.RATIO= 1.361647  PHI,EQ.RATIO= 1.454526

                 INJECTOR  COMB END  THROAT
 Pinj/P            1.0000   1.0021   1.7315
 P, BAR            14.450   14.420   8.3455
 T, K             3265.40  3264.96  3102.38
 RHO, KG/CU M    1.3004 0 1.2979 0 8.0044-1
 H, KJ/KG        -1979.29 -1980.46 -2569.13
 U, KJ/KG        -3090.45 -3091.46 -3611.75
 G, KJ/KG        -38541.5 -38539.0 -37307.2
 S, KJ/(KG)(K)    11.1969  11.1972  11.1972

 M, (1/n)          24.434   24.434   24.740
 (dLV/dLP)t      -1.02979 -1.02978 -1.02350
 (dLV/dLT)p        1.5764   1.5764   1.4795
 Cp, KJ/(KG)(K)    5.7841   5.7842   5.2667
 GAMMAs            1.1318   1.1317   1.1315
 SON VEL,M/SEC     1121.4   1121.3   1086.1
 MACH NUMBER        0.000    0.043    1.000

 PERFORMANCE PARAMETERS

 Ae/At                      13.861   1.0000
 CSTAR, M/SEC               1660.4   1660.4
 CF                         0.0291   0.6542
 Ivac, M/SEC               23038.3   2046.1
 Isp, M/SEC                   48.3   1086.1


 MOLE FRACTIONS

 *CO              0.34947  0.34946  0.34384
 *CO2             0.17386  0.17388  0.18605
 COOH             0.00001  0.00001  0.00000
 *H               0.02481  0.02481  0.02084
 HCO              0.00001  0.00001  0.00000
 HO2              0.00003  0.00003  0.00001
 *H2              0.07938  0.07938  0.07883
 H2O              0.31211  0.31213  0.32440
 *O               0.00723  0.00723  0.00489
 *OH              0.04203  0.04201  0.03320
 *O2              0.01107  0.01106  0.00791

  * THERMODYNAMIC PROPERTIES FITTED TO 20000.K

    PRODUCTS WHICH WERE CONSIDERED BUT WHOSE MOLE FRACTIONS
    WERE LESS THAN 5.000000E-06 FOR ALL ASSIGNED CONDITIONS

 *C              *CH             CH2             CH3             CH2OH          
 CH3O            CH4             CH3OH           CH3OOH          *C2            
 C2H             C2H2,acetylene  C2H2,vinylidene CH2CO,ketene    O(CH)2O        
 HO(CO)2OH       C2H3,vinyl      CH3CO,acetyl    C2H4            C2H4O,ethylen-o
 CH3CHO,ethanal  CH3COOH         OHCH2COOH       C2H5            C2H6           
 C2H5OH          CH3OCH3         CH3O2CH3        C2O             *C3            
 C3H3,1-propynl  C3H3,2-propynl  C3H4,allene     C3H4,propyne    C3H4,cyclo-    
 C3H5,allyl      C3H6,propylene  C3H6,cyclo-     C3H6O,propylox  C3H6O,acetone  
 C3H6O,propanal  C3H7,n-propyl   C3H7,i-propyl   C3H8            C3H8O,1propanol
 C3H8O,2propanol C3O2            *C4             C4H2,butadiyne  C4H4,1,3-cyclo-
 C4H6,butadiene  C4H6,1butyne    C4H6,2butyne    C4H6,cyclo-     C4H8,1-butene  
 C4H8,cis2-buten C4H8,tr2-butene C4H8,isobutene  C4H8,cyclo-     (CH3COOH)2     
 C4H9,n-butyl    C4H9,i-butyl    C4H9,s-butyl    C4H9,t-butyl    C4H10,n-butane 
 C4H10,isobutane *C5             C5H6,1,3cyclo-  C5H8,cyclo-     C5H10,1-pentene
 C5H10,cyclo-    C5H11,pentyl    C5H11,t-pentyl  C5H12,n-pentane C5H12,i-pentane
 CH3C(CH3)2CH3   C6H2            C6H5,phenyl     C6H5O,phenoxy   C6H6           
 C6H5OH,phenol   C6H10,cyclo-    C6H12,1-hexene  C6H12,cyclo-    C6H13,n-hexyl  
 C6H14,n-hexane  C7H7,benzyl     C7H8            C7H8O,cresol-mx C7H14,1-heptene
 C7H15,n-heptyl  C7H16,n-heptane C7H16,2-methylh C8H8,styrene    C8H10,ethylbenz
 C8H16,1-octene  C8H17,n-octyl   C8H18,n-octane  C8H18,isooctane C9H19,n-nonyl  
 C10H8,naphthale C10H21,n-decyl  C12H9,o-bipheny C12H10,biphenyl HCCO           
 HCHO,formaldehy HCOOH           H2O2            (HCOOH)2        O3             
 C(gr)           H2O(cr)         H2O(L)         

 NOTE. WEIGHT FRACTION OF FUEL IN TOTAL FUELS AND OF OXIDANT IN TOTAL OXIDANTS






 WARNING!!  ASSIGNED pip =   0.00000 IS NOT PERMITTED
 TO BE LESS THAN  Pinj/Pc =  1.00210. POINT OMITTED (ROCKET)





              THEORETICAL ROCKET PERFORMANCE ASSUMING EQUILIBRIUM

            COMPOSITION DURING EXPANSION FROM FINITE AREA COMBUSTOR

 Pin =   209.6 PSIA
 Ac/At = 13.8597      Pinj/Pinf =  1.001049
 CASE =                

             REACTANT                    WT FRACTION      ENERGY      TEMP
                                          (SEE NOTE)     KJ/KG-MOL      K  
 OXIDANT     O2                           0.9828169      1178.139    338.100
 OXIDANT     H2O                          0.0103098   -240480.135    338.100
 OXIDANT     CO2                          0.0068732   -391990.834    338.100
 FUEL        PMMA                         1.0000000   -442140.000    293.150

 O/F=    1.34149  %FUEL= 42.707804  R,EQ.RATIO= 1.361647  PHI,EQ.RATIO= 1.454526

                 INJECTOR  COMB END  THROAT
 Pinj/P            1.0000   1.0021   1.7315
 P, BAR            14.450   14.420   8.3455
 T, K             3265.40  3264.96  3102.38
 RHO, KG/CU M    1.3004 0 1.2979 0 8.0044-1
 H, KJ/KG        -1979.29 -1980.46 -2569.13
 U, KJ/KG        -3090.45 -3091.46 -3611.75
 G, KJ/KG        -38541.5 -38539.0 -37307.2
 S, KJ/(KG)(K)    11.1969  11.1972  11.1972

 M, (1/n)          24.434   24.434   24.740
 (dLV/dLP)t      -1.02979 -1.02978 -1.02350
 (dLV/dLT)p        1.5764   1.5764   1.4795
 Cp, KJ/(KG)(K)    5.7841   5.7842   5.2667
 GAMMAs            1.1318   1.1317   1.1315
 SON VEL,M/SEC     1121.4   1121.3   1086.1
 MACH NUMBER        0.000    0.043    1.000

 PERFORMANCE PARAMETERS

 Ae/At                      13.861   1.0000
 CSTAR, M/SEC               1660.4   1660.4
 CF                         0.0291   0.6542
 Ivac, M/SEC               23038.3   2046.1
 Isp, M/SEC                   48.3   1086.1


 MOLE FRACTIONS

 *CO              0.34947  0.34946  0.34384
 *CO2             0.17386  0.17388  0.18605
 COOH             0.00001  0.00001  0.00000
 *H               0.02481  0.02481  0.02084
 HCO              0.00001  0.00001  0.00000
 HO2              0.00003  0.00003  0.00001
 *H2              0.07938  0.07938  0.07883
 H2O              0.31211  0.31213  0.32440
 *O               0.00723  0.00723  0.00489
 *OH              0.04203  0.04201  0.03320
 *O2              0.01107  0.01106  0.00791

  * THERMODYNAMIC PROPERTIES FITTED TO 20000.K

    PRODUCTS WHICH WERE CONSIDERED BUT WHOSE MOLE FRACTIONS
    WERE LESS THAN 5.000000E-06 FOR ALL ASSIGNED CONDITIONS

 *C              *CH             CH2             CH3             CH2OH          
 CH3O            CH4             CH3OH           CH3OOH          *C2            
 C2H             C2H2,acetylene  C2H2,vinylidene CH2CO,ketene    O(CH)2O        
 HO(CO)2OH       C2H3,vinyl      CH3CO,acetyl    C2H4            C2H4O,ethylen-o
 CH3CHO,ethanal  CH3COOH         OHCH2COOH       C2H5            C2H6           
 C2H5OH          CH3OCH3         CH3O2CH3        C2O             *C3            
 C3H3,1-propynl  C3H3,2-propynl  C3H4,allene     C3H4,propyne    C3H4,cyclo-    
 C3H5,allyl      C3H6,propylene  C3H6,cyclo-     C3H6O,propylox  C3H6O,acetone  
 C3H6O,propanal  C3H7,n-propyl   C3H7,i-propyl   C3H8            C3H8O,1propanol
 C3H8O,2propanol C3O2            *C4             C4H2,butadiyne  C4H4,1,3-cyclo-
 C4H6,butadiene  C4H6,1butyne    C4H6,2butyne    C4H6,cyclo-     C4H8,1-butene  
 C4H8,cis2-buten C4H8,tr2-butene C4H8,isobutene  C4H8,cyclo-     (CH3COOH)2     
 C4H9,n-butyl    C4H9,i-butyl    C4H9,s-butyl    C4H9,t-butyl    C4H10,n-butane 
 C4H10,isobutane *C5             C5H6,1,3cyclo-  C5H8,cyclo-     C5H10,1-pentene
 C5H10,cyclo-    C5H11,pentyl    C5H11,t-pentyl  C5H12,n-pentane C5H12,i-pentane
 CH3C(CH3)2CH3   C6H2            C6H5,phenyl     C6H5O,phenoxy   C6H6           
 C6H5OH,phenol   C6H10,cyclo-    C6H12,1-hexene  C6H12,cyclo-    C6H13,n-hexyl  
 C6H14,n-hexane  C7H7,benzyl     C7H8            C7H8O,cresol-mx C7H14,1-heptene
 C7H15,n-heptyl  C7H16,n-heptane C7H16,2-methylh C8H8,styrene    C8H10,ethylbenz
 C8H16,1-octene  C8H17,n-octyl   C8H18,n-octane  C8H18,isooctane C9H19,n-nonyl  
 C10H8,naphthale C10H21,n-decyl  C12H9,o-bipheny C12H10,biphenyl HCCO           
 HCHO,formaldehy HCOOH           H2O2            (HCOOH)2        O3             
 C(gr)           H2O(cr)         H2O(L)         

 NOTE. WEIGHT FRACTION OF FUEL IN TOTAL FUELS AND OF OXIDANT IN TOTAL OXIDANTS





   4    5    2478.515     -18.575     -11.305     -16.325





              THEORETICAL ROCKET PERFORMANCE ASSUMING EQUILIBRIUM

            COMPOSITION DURING EXPANSION FROM FINITE AREA COMBUSTOR

 Pin =   209.6 PSIA
 Ac/At = 13.8597      Pinj/Pinf =  1.001049
 CASE =                

             REACTANT                    WT FRACTION      ENERGY      TEMP
                                          (SEE NOTE)     KJ/KG-MOL      K  
 OXIDANT     O2                           0.9828169      1178.139    338.100
 OXIDANT     H2O                          0.0103098   -240480.135    338.100
 OXIDANT     CO2                          0.0068732   -391990.834    338.100
 FUEL        PMMA                         1.0000000   -442140.000    293.150

 O/F=    1.34149  %FUEL= 42.707804  R,EQ.RATIO= 1.361647  PHI,EQ.RATIO= 1.454526

                 INJECTOR  COMB END  THROAT     EXIT
 Pinj/P            1.0000   1.0021   1.7315   13.860
 P, BAR            14.450   14.420   8.3455   1.0426
 T, K             3265.40  3264.96  3102.38  2478.52
 RHO, KG/CU M    1.3004 0 1.2979 0 8.0044-1 1.2944-1
 H, KJ/KG        -1979.29 -1980.46 -2569.13 -4488.31
 U, KJ/KG        -3090.45 -3091.46 -3611.75 -5293.77
 G, KJ/KG        -38541.5 -38539.0 -37307.2 -32240.8
 S, KJ/(KG)(K)    11.1969  11.1972  11.1972  11.1972

 M, (1/n)          24.434   24.434   24.740   25.585
 (dLV/dLP)t      -1.02979 -1.02978 -1.02350 -1.00389
 (dLV/dLT)p        1.5764   1.5764   1.4795   1.0977
 Cp, KJ/(KG)(K)    5.7841   5.7842   5.2667   2.7210
 GAMMAs            1.1318   1.1317   1.1315   1.1628
 SON VEL,M/SEC     1121.4   1121.3   1086.1    967.8
 MACH NUMBER        0.000    0.043    1.000    2.315

 PERFORMANCE PARAMETERS

 Ae/At                      13.861   1.0000   2.9983
 CSTAR, M/SEC               1660.4   1660.4   1660.4
 CF                         0.0291   0.6542   1.3492
 Ivac, M/SEC               23038.3   2046.1   2599.7
 Isp, M/SEC                   48.3   1086.1   2240.1


 MOLE FRACTIONS

 *CO              0.34947  0.34946  0.34384  0.32570
 *CO2             0.17386  0.17388  0.18605  0.22228
 COOH             0.00001  0.00001  0.00000  0.00000
 *H               0.02481  0.02481  0.02084  0.00652
 HCO              0.00001  0.00001  0.00000  0.00000
 HO2              0.00003  0.00003  0.00001  0.00000
 *H2              0.07938  0.07938  0.07883  0.08458
 H2O              0.31211  0.31213  0.32440  0.35407
 *O               0.00723  0.00723  0.00489  0.00028
 *OH              0.04203  0.04201  0.03320  0.00608
 *O2              0.01107  0.01106  0.00791  0.00048

  * THERMODYNAMIC PROPERTIES FITTED TO 20000.K

    PRODUCTS WHICH WERE CONSIDERED BUT WHOSE MOLE FRACTIONS
    WERE LESS THAN 5.000000E-06 FOR ALL ASSIGNED CONDITIONS

 *C              *CH             CH2             CH3             CH2OH          
 CH3O            CH4             CH3OH           CH3OOH          *C2            
 C2H             C2H2,acetylene  C2H2,vinylidene CH2CO,ketene    O(CH)2O        
 HO(CO)2OH       C2H3,vinyl      CH3CO,acetyl    C2H4            C2H4O,ethylen-o
 CH3CHO,ethanal  CH3COOH         OHCH2COOH       C2H5            C2H6           
 C2H5OH          CH3OCH3         CH3O2CH3        C2O             *C3            
 C3H3,1-propynl  C3H3,2-propynl  C3H4,allene     C3H4,propyne    C3H4,cyclo-    
 C3H5,allyl      C3H6,propylene  C3H6,cyclo-     C3H6O,propylox  C3H6O,acetone  
 C3H6O,propanal  C3H7,n-propyl   C3H7,i-propyl   C3H8            C3H8O,1propanol
 C3H8O,2propanol C3O2            *C4             C4H2,butadiyne  C4H4,1,3-cyclo-
 C4H6,butadiene  C4H6,1butyne    C4H6,2butyne    C4H6,cyclo-     C4H8,1-butene  
 C4H8,cis2-buten C4H8,tr2-butene C4H8,isobutene  C4H8,cyclo-     (CH3COOH)2     
 C4H9,n-butyl    C4H9,i-butyl    C4H9,s-butyl    C4H9,t-butyl    C4H10,n-butane 
 C4H10,isobutane *C5             C5H6,1,3cyclo-  C5H8,cyclo-     C5H10,1-pentene
 C5H10,cyclo-    C5H11,pentyl    C5H11,t-pentyl  C5H12,n-pentane C5H12,i-pentane
 CH3C(CH3)2CH3   C6H2            C6H5,phenyl     C6H5O,phenoxy   C6H6           
 C6H5OH,phenol   C6H10,cyclo-    C6H12,1-hexene  C6H12,cyclo-    C6H13,n-hexyl  
 C6H14,n-hexane  C7H7,benzyl     C7H8            C7H8O,cresol-mx C7H14,1-heptene
 C7H15,n-heptyl  C7H16,n-heptane C7H16,2-methylh C8H8,styrene    C8H10,ethylbenz
 C8H16,1-octene  C8H17,n-octyl   C8H18,n-octane  C8H18,isooctane C9H19,n-nonyl  
 C10H8,naphthale C10H21,n-decyl  C12H9,o-bipheny C12H10,biphenyl HCCO           
 HCHO,formaldehy HCOOH           H2O2            (HCOOH)2        O3             
 C(gr)           H2O(cr)         H2O(L)         

 NOTE. WEIGHT FRACTION OF FUEL IN TOTAL FUELS AND OF OXIDANT IN TOTAL OXIDANTS



