
 *******************************************************************************

         NASA-GLENN CHEMICAL EQUILIBRIUM PROGRAM CEA2, MAY 21, 2004
                   BY  BONNIE MCBRIDE AND SANFORD GORDON
      REFS: NASA RP-1311, PART I, 1994 AND NASA RP-1311, PART II, 1996

 *******************************************************************************



 prob rocket fac p,bar=68,ac/at=1.00,
 super=25, pi/pe=68
 reac
   fuel = CH4  moles=2.00 t(k)= 298.15
   oxid = N2O  moles=0.10 t(k)= 298.15
   oxid = O2   moles=0.90 t(k)= 298.15
 end

 OPTIONS: TP=F  HP=F  SP=F  TV=F  UV=F  SV=F  DETN=F  SHOCK=F  REFL=F  INCD=F
 RKT=T  FROZ=F  EQL=T  IONS=F  SIUNIT=T  DEBUGF=F  SHKDBG=F  DETDBG=F  TRNSPT=F

 TRACE= 0.00E+00  S/R= 0.000000E+00  H/R= 0.000000E+00  U/R= 0.000000E+00

 Pc,BAR =    68.000000

 Pc/P =    68.0000

 SUBSONIC AREA RATIOS =

 SUPERSONIC AREA RATIOS =    25.0000

 NFZ=  1  Mdot/Ac= 0.000000E+00  Ac/At= 1.000000E+00

    REACTANT           MOLES    (ENERGY/R),K   TEMP,K  DENSITY
        EXPLODED FORMULA
 F: CH4              2.000000  -0.897227E+04   298.15  0.0000
          C  1.00000  H  4.00000
 O: N2O              0.100000   0.981417E+04   298.15  0.0000
          N  2.00000  O  1.00000
 O: O2               0.900000  -0.154035E-05   298.15  0.0000
          O  2.00000

  SPECIES BEING CONSIDERED IN THIS SYSTEM
 (CONDENSED PHASE MAY HAVE NAME LISTED SEVERAL TIMES)
  LAST thermo.inp UPDATE:    9/09/04

  g 7/97  *C               tpis79  *CH              g 4/02  CH2            
  g 4/02  CH3              g11/00  CH2OH            g 7/00  CH3O           
  g 8/99  CH4              g 7/00  CH3OH            srd 01  CH3OOH         
  g 8/99  *CN              g12/99  CNN              tpis79  *CO            
  g 9/99  *CO2             tpis91  COOH             tpis91  *C2            
  g 6/01  C2H              g 1/91  C2H2,acetylene   g 5/01  C2H2,vinylidene
  g 4/02  CH2CO,ketene     g 3/02  O(CH)2O          srd 01  HO(CO)2OH      
  g 7/01  C2H3,vinyl       g 9/00  CH3CN            g 6/96  CH3CO,acetyl   
  g 1/00  C2H4             g 8/88  C2H4O,ethylen-o  g 8/88  CH3CHO,ethanal 
  g 6/00  CH3COOH          srd 01  OHCH2COOH        g 7/00  C2H5           
  g 7/00  C2H6             g 8/88  CH3N2CH3         g 8/88  C2H5OH         
  g 7/00  CH3OCH3          srd 01  CH3O2CH3         g 7/00  CCN            
  tpis91  CNC              srd 01  OCCN             tpis79  C2N2           
  g 8/00  C2O              tpis79  *C3              n 4/98  C3H3,1-propynl 
  n 4/98  C3H3,2-propynl   g 2/00  C3H4,allene      g 1/00  C3H4,propyne   
  g 5/90  C3H4,cyclo-      g 3/01  C3H5,allyl       g 2/00  C3H6,propylene 
  g 1/00  C3H6,cyclo-      g 6/01  C3H6O,propylox   g 6/97  C3H6O,acetone  
  g 1/02  C3H6O,propanal   g 7/01  C3H7,n-propyl    g 9/85  C3H7,i-propyl  
  g 2/00  C3H8             g 2/00  C3H8O,1propanol  g 2/00  C3H8O,2propanol
  srd 01  CNCOCN           g 7/88  C3O2             g tpis  *C4            
  g 7/01  C4H2,butadiyne   g 8/00  C4H4,1,3-cyclo-  n10/92  C4H6,butadiene 
  n10/93  C4H6,1butyne     n10/93  C4H6,2butyne     g 8/00  C4H6,cyclo-    
  n 4/88  C4H8,1-butene    n 4/88  C4H8,cis2-buten  n 4/88  C4H8,tr2-butene
  n 4/88  C4H8,isobutene   g 8/00  C4H8,cyclo-      g10/00  (CH3COOH)2     
  n10/84  C4H9,n-butyl     n10/84  C4H9,i-butyl     g 1/93  C4H9,s-butyl   
  g 1/93  C4H9,t-butyl     g12/00  C4H10,n-butane   g 8/00  C4H10,isobutane
  g 6/01  C4N2             g 8/00  *C5              g 5/90  C5H6,1,3cyclo- 
  g 1/93  C5H8,cyclo-      n 4/87  C5H10,1-pentene  g 2/01  C5H10,cyclo-   
  n10/84  C5H11,pentyl     g 1/93  C5H11,t-pentyl   n10/85  C5H12,n-pentane
  n10/85  C5H12,i-pentane  n10/85  CH3C(CH3)2CH3    g 2/93  C6H2           
  g11/00  C6H5,phenyl      g 8/00  C6H5O,phenoxy    g 8/00  C6H6           
  g 8/00  C6H5OH,phenol    g 1/93  C6H10,cyclo-     n 4/87  C6H12,1-hexene 
  g 6/90  C6H12,cyclo-     n10/83  C6H13,n-hexyl    g 6/01  C6H14,n-hexane 
  g 7/01  C7H7,benzyl      g 1/93  C7H8             g12/00  C7H8O,cresol-mx
  n 4/87  C7H14,1-heptene  n10/83  C7H15,n-heptyl   n10/85  C7H16,n-heptane
  n10/85  C7H16,2-methylh  n 4/89  C8H8,styrene     n10/86  C8H10,ethylbenz
  n 4/87  C8H16,1-octene   n10/83  C8H17,n-octyl    n 4/85  C8H18,n-octane 
  n 4/85  C8H18,isooctane  n10/83  C9H19,n-nonyl    g 3/01  C10H8,naphthale
  n10/83  C10H21,n-decyl   g 8/00  C12H9,o-bipheny  g 8/00  C12H10,biphenyl
  g 6/97  *H               g 6/01  HCN              g 1/01  HCO            
  tpis89  HCCN             g 6/01  HCCO             g 6/01  HNC            
  g 7/00  HNCO             g10/01  HNO              tpis89  HNO2           
  g 5/99  HNO3             g 4/02  HO2              tpis78  *H2            
  g 5/01  HCHO,formaldehy  g 6/01  HCOOH            g 8/89  H2O            
  g 6/99  H2O2             g 6/01  (HCOOH)2         g 5/97  *N             
  g 6/01  NCO              g 4/99  *NH              g 3/01  NH2            
  tpis89  NH3              tpis89  NH2OH            tpis89  *NO            
  g 4/99  NO2              j12/64  NO3              tpis78  *N2            
  g 6/01  NCN              g 5/99  N2H2             tpis89  NH2NO2         
  g 4/99  N2H4             g 4/99  N2O              g 4/99  N2O3           
  tpis89  N2O4             g 4/99  N2O5             tpis89  N3             
  g 4/99  N3H              g 5/97  *O               g 4/02  *OH            
  tpis89  *O2              g 8/01  O3               n 4/83  C(gr)          
  n 4/83  C(gr)            n 4/83  C(gr)            g11/99  H2O(cr)        
  g 8/01  H2O(L)           g 8/01  H2O(L)         

 O/F =   1.034760

                       EFFECTIVE FUEL     EFFECTIVE OXIDANT        MIXTURE
 ENTHALPY                  h(2)/R              h(1)/R               h0/R
 (KG-MOL)(K)/KG       -0.55928246E+03      0.29560570E+02     -0.25983128E+03

 KG-FORM.WT./KG             bi(2)               bi(1)               b0i
  *C                   0.62334580E-01      0.00000000E+00      0.30634852E-01
  *H                   0.24933832E+00      0.00000000E+00      0.12253941E+00
  *N                   0.00000000E+00      0.60240601E-02      0.30634852E-02
  *O                   0.00000000E+00      0.57228571E-01      0.29103110E-01

 POINT ITN      T            C           H           N           O 

   1   18    1316.917      -2.006      -7.350     -12.657     -31.560

   2    3    1294.914      -1.937      -7.445     -12.761     -31.995

 Pinf/Pt = 1.765107
   3    3    1210.879      -1.670      -7.653     -12.938     -33.391

 ADD  C(gr)          
   3    2    1213.776      -1.819      -7.641     -12.943     -33.264

 Pinf/Pt = 1.747624
   3    2    1215.093      -1.821      -7.638     -12.939     -33.242

 Pinf/Pt = 1.747717
   3    1    1215.086      -1.821      -7.638     -12.939     -33.242

   4    3    1219.986      -1.700      -7.628     -12.917     -33.229

 ADD  C(gr)          
   4    2    1222.535      -1.831      -7.618     -12.921     -33.118

   4    3    1218.928      -1.826      -7.628     -12.930     -33.178

   4    2    1217.037      -1.823      -7.633     -12.935     -33.209

   4    2    1216.069      -1.822      -7.635     -12.937     -33.225

   4    2    1215.580      -1.821      -7.636     -12.938     -33.234

   2    3    1298.261      -1.948      -7.431     -12.745     -31.928

 Pinf/Pt = 1.765196
   3    3    1213.868      -1.680      -7.638     -12.921     -33.323

 ADD  C(gr)          
   3    2    1216.656      -1.823      -7.627     -12.926     -33.202

 Pinf/Pt = 1.747703
   3    2    1217.979      -1.825      -7.623     -12.923     -33.180

 Pinf/Pt = 1.747795
   3    1    1217.972      -1.825      -7.623     -12.923     -33.180

   4    3    1223.015      -1.711      -7.613     -12.900     -33.161

 ADD  C(gr)          
   4    2    1225.453      -1.835      -7.604     -12.905     -33.056

   4    3    1221.830      -1.830      -7.613     -12.913     -33.115

   4    2    1219.931      -1.827      -7.618     -12.918     -33.147

   4    2    1218.959      -1.826      -7.621     -12.921     -33.163

   4    2    1218.468      -1.825      -7.622     -12.922     -33.171

   2    1    1298.259      -1.948      -7.431     -12.745     -31.928

 Pinf/Pt = 1.765196
   3    3    1213.866      -1.680      -7.638     -12.921     -33.323

 ADD  C(gr)          
   3    2    1216.654      -1.823      -7.627     -12.926     -33.202

 Pinf/Pt = 1.747703
   3    2    1217.977      -1.825      -7.623     -12.923     -33.180

 Pinf/Pt = 1.747795
   3    1    1217.970      -1.825      -7.623     -12.923     -33.180

   4    3    1223.013      -1.711      -7.613     -12.900     -33.161

 ADD  C(gr)          
   4    2    1225.451      -1.835      -7.604     -12.905     -33.056

   4    3    1221.828      -1.830      -7.613     -12.914     -33.116

   4    2    1219.929      -1.827      -7.618     -12.918     -33.147

   4    2    1218.957      -1.826      -7.621     -12.921     -33.163

   4    2    1218.466      -1.825      -7.622     -12.922     -33.171

 END OF CHAMBER ITERATIONS
   4    5     885.070      -1.358      -8.928     -14.174     -41.271

   5    4     771.185      -1.194      -9.615     -14.823     -45.802

   5    3     793.029      -1.226      -9.472     -14.690     -44.830

   5    2     793.092      -1.226      -9.472     -14.690     -44.827






              THEORETICAL ROCKET PERFORMANCE ASSUMING EQUILIBRIUM

            COMPOSITION DURING EXPANSION FROM FINITE AREA COMBUSTOR

 Pin =   986.3 PSIA
 Ac/At =  1.0000      Pinj/Pinf =  1.237241
 CASE =                

             REACTANT                       MOLES         ENERGY      TEMP
                                                         KJ/KG-MOL      K
 FUEL        CH4                          2.0000000    -74600.000    298.150
 OXIDANT     N2O                          0.1000000     81600.000    298.150
 OXIDANT     O2                           0.9000000        -0.000    298.150

 O/F=    1.03476  %FUEL= 49.145839  R,EQ.RATIO= 4.210526  PHI,EQ.RATIO= 4.210526

                 INJECTOR  COMB END  THROAT     EXIT     EXIT
 Pinj/P            1.0000   2.1544   2.1624   68.000   255.63
 P, BAR            68.000   31.563   31.446   1.0000  0.26601
 T, K             1316.92  1218.47  1217.97   885.07   793.09
 RHO, KG/CU M    8.1905 0 4.1528 0 4.1395 0 2.0039-1 6.1721-2
 H, KJ/KG        -2160.37 -2599.07 -2601.90 -4723.39 -5338.02
 U, KJ/KG        -2990.60 -3359.13 -3361.56 -5222.41 -5769.00
 G, KJ/KG        -21016.9 -20210.0 -20205.7 -17515.7 -16800.9
 S, KJ/(KG)(K)    14.3187  14.4534  14.4534  14.4534  14.4534

 M, (1/n)          13.188   13.329   13.331   14.747   15.300
 MW, MOL WT        13.188   13.070   13.069   12.623   12.600
 (dLV/dLP)t      -1.11119 -1.11439 -1.11442 -1.10358 -1.09169
 (dLV/dLT)p        2.1839   2.3259   2.3269   2.5746   2.4463
 Cp, KJ/(KG)(K)   11.0913  13.2753  13.2861  17.3861  16.0620
 GAMMAs            1.1903   1.1625   1.1625   1.1253   1.1246
 SON VEL,M/SEC      994.1    940.0    939.7    749.4    696.2
 MACH NUMBER        0.000    0.996    1.000    3.021    3.621

 PERFORMANCE PARAMETERS

 Ae/At                      1.0000  1.00000   8.5737   25.000
 CSTAR, M/SEC               1412.9   1412.9   1412.9   1412.9
 CF                         0.6630   0.6651   1.6024   1.7843
 Ivac, M/SEC                1748.1   1748.1   2484.5   2691.9
 Isp, M/SEC                  936.7    939.7   2264.1   2521.0


 MOLE FRACTIONS

 CH4              0.11580  0.11039  0.11037  0.08967  0.08862
 *CO              0.26651  0.24270  0.24252  0.08447  0.04389
 *CO2             0.02154  0.02776  0.02780  0.06851  0.07698
 C2H4             0.00003  0.00001  0.00001  0.00000  0.00000
 C2H6             0.00004  0.00002  0.00002  0.00000  0.00000
 HCN              0.00003  0.00001  0.00001  0.00000  0.00000
 *H2              0.50143  0.49733  0.49727  0.44806  0.42584
 H2O              0.07423  0.08215  0.08223  0.14588  0.16885
 NH3              0.00040  0.00028  0.00028  0.00007  0.00004
 *N2              0.01999  0.01987  0.01987  0.01930  0.01928
 C(gr)            0.00000  0.01946  0.01961  0.14405  0.17651

  * THERMODYNAMIC PROPERTIES FITTED TO 20000.K

    PRODUCTS WHICH WERE CONSIDERED BUT WHOSE MOLE FRACTIONS
    WERE LESS THAN 5.000000E-06 FOR ALL ASSIGNED CONDITIONS

 *C              *CH             CH2             CH3             CH2OH          
 CH3O            CH3OH           CH3OOH          *CN             CNN            
 COOH            *C2             C2H             C2H2,acetylene  C2H2,vinylidene
 CH2CO,ketene    O(CH)2O         HO(CO)2OH       C2H3,vinyl      CH3CN          
 CH3CO,acetyl    C2H4O,ethylen-o CH3CHO,ethanal  CH3COOH         OHCH2COOH      
 C2H5            CH3N2CH3        C2H5OH          CH3OCH3         CH3O2CH3       
 CCN             CNC             OCCN            C2N2            C2O            
 *C3             C3H3,1-propynl  C3H3,2-propynl  C3H4,allene     C3H4,propyne   
 C3H4,cyclo-     C3H5,allyl      C3H6,propylene  C3H6,cyclo-     C3H6O,propylox 
 C3H6O,acetone   C3H6O,propanal  C3H7,n-propyl   C3H7,i-propyl   C3H8           
 C3H8O,1propanol C3H8O,2propanol CNCOCN          C3O2            *C4            
 C4H2,butadiyne  C4H4,1,3-cyclo- C4H6,butadiene  C4H6,1butyne    C4H6,2butyne   
 C4H6,cyclo-     C4H8,1-butene   C4H8,cis2-buten C4H8,tr2-butene C4H8,isobutene 
 C4H8,cyclo-     (CH3COOH)2      C4H9,n-butyl    C4H9,i-butyl    C4H9,s-butyl   
 C4H9,t-butyl    C4H10,n-butane  C4H10,isobutane C4N2            *C5            
 C5H6,1,3cyclo-  C5H8,cyclo-     C5H10,1-pentene C5H10,cyclo-    C5H11,pentyl   
 C5H11,t-pentyl  C5H12,n-pentane C5H12,i-pentane CH3C(CH3)2CH3   C6H2           
 C6H5,phenyl     C6H5O,phenoxy   C6H6            C6H5OH,phenol   C6H10,cyclo-   
 C6H12,1-hexene  C6H12,cyclo-    C6H13,n-hexyl   C6H14,n-hexane  C7H7,benzyl    
 C7H8            C7H8O,cresol-mx C7H14,1-heptene C7H15,n-heptyl  C7H16,n-heptane
 C7H16,2-methylh C8H8,styrene    C8H10,ethylbenz C8H16,1-octene  C8H17,n-octyl  
 C8H18,n-octane  C8H18,isooctane C9H19,n-nonyl   C10H8,naphthale C10H21,n-decyl 
 C12H9,o-bipheny C12H10,biphenyl *H              HCO             HCCN           
 HCCO            HNC             HNCO            HNO             HNO2           
 HNO3            HO2             HCHO,formaldehy HCOOH           H2O2           
 (HCOOH)2        *N              NCO             *NH             NH2            
 NH2OH           *NO             NO2             NO3             NCN            
 N2H2            NH2NO2          N2H4            N2O             N2O3           
 N2O4            N2O5            N3              N3H             *O             
 *OH             *O2             O3              H2O(cr)         H2O(L)         



