
 *******************************************************************************

         NASA-GLENN CHEMICAL EQUILIBRIUM PROGRAM CEA2, MAY 21, 2004
                   BY  BONNIE MCBRIDE AND SANFORD GORDON
      REFS: NASA RP-1311, PART I, 1994 AND NASA RP-1311, PART II, 1996

 *******************************************************************************



 prob rocket fac p,bar=11.5,ac/at=7.60998810939,
 o/f=6.0604239285, pi/pe=1, eq
 react
 	oxid=O2  wt=0.964343749293	t,k=3449.2
 	oxid=H2O wt=0.0213937504245	t,k=3449.2
 	oxid=CO2 wt=0.014262500283	t,k=3449.2
 	fuel=PMMA  wt=100 t,k=293.15
 	h,kj/mol=-442.14  C 5 H 8 O 2
 end

 OPTIONS: TP=F  HP=F  SP=F  TV=F  UV=F  SV=F  DETN=F  SHOCK=F  REFL=F  INCD=F
 RKT=T  FROZ=F  EQL=T  IONS=F  SIUNIT=T  DEBUGF=F  SHKDBG=F  DETDBG=F  TRNSPT=F

 TRACE= 0.00E+00  S/R= 0.000000E+00  H/R= 0.000000E+00  U/R= 0.000000E+00

 Pc,BAR =    11.500000

 Pc/P =     1.0000

 SUBSONIC AREA RATIOS =

 SUPERSONIC AREA RATIOS =

 NFZ=  1  Mdot/Ac= 0.000000E+00  Ac/At= 7.609988E+00

    REACTANT          WT.FRAC   (ENERGY/R),K   TEMP,K  DENSITY
        EXPLODED FORMULA
 O: O2               0.964344   0.139837E+05  3449.20  0.0000
          O  2.00000
 O: H2O              0.021394  -0.106242E+05  3449.20  0.0000
          H  2.00000  O  1.00000
 O: CO2              0.014263  -0.255770E+05  3449.20  0.0000
          C  1.00000  O  2.00000
 F: PMMA             1.000000  -0.531769E+05   293.15  0.0000
          C  5.00000  H  8.00000  O  2.00000

  SPECIES BEING CONSIDERED IN THIS SYSTEM
 (CONDENSED PHASE MAY HAVE NAME LISTED SEVERAL TIMES)
  LAST thermo.inp UPDATE:    9/09/04

  g 7/97  *C               tpis79  *CH              g 4/02  CH2            
  g 4/02  CH3              g11/00  CH2OH            g 7/00  CH3O           
  g 8/99  CH4              g 7/00  CH3OH            srd 01  CH3OOH         
  tpis79  *CO              g 9/99  *CO2             tpis91  COOH           
  tpis91  *C2              g 6/01  C2H              g 1/91  C2H2,acetylene 
  g 5/01  C2H2,vinylidene  g 4/02  CH2CO,ketene     g 3/02  O(CH)2O        
  srd 01  HO(CO)2OH        g 7/01  C2H3,vinyl       g 6/96  CH3CO,acetyl   
  g 1/00  C2H4             g 8/88  C2H4O,ethylen-o  g 8/88  CH3CHO,ethanal 
  g 6/00  CH3COOH          srd 01  OHCH2COOH        g 7/00  C2H5           
  g 7/00  C2H6             g 8/88  C2H5OH           g 7/00  CH3OCH3        
  srd 01  CH3O2CH3         g 8/00  C2O              tpis79  *C3            
  n 4/98  C3H3,1-propynl   n 4/98  C3H3,2-propynl   g 2/00  C3H4,allene    
  g 1/00  C3H4,propyne     g 5/90  C3H4,cyclo-      g 3/01  C3H5,allyl     
  g 2/00  C3H6,propylene   g 1/00  C3H6,cyclo-      g 6/01  C3H6O,propylox 
  g 6/97  C3H6O,acetone    g 1/02  C3H6O,propanal   g 7/01  C3H7,n-propyl  
  g 9/85  C3H7,i-propyl    g 2/00  C3H8             g 2/00  C3H8O,1propanol
  g 2/00  C3H8O,2propanol  g 7/88  C3O2             g tpis  *C4            
  g 7/01  C4H2,butadiyne   g 8/00  C4H4,1,3-cyclo-  n10/92  C4H6,butadiene 
  n10/93  C4H6,1butyne     n10/93  C4H6,2butyne     g 8/00  C4H6,cyclo-    
  n 4/88  C4H8,1-butene    n 4/88  C4H8,cis2-buten  n 4/88  C4H8,tr2-butene
  n 4/88  C4H8,isobutene   g 8/00  C4H8,cyclo-      g10/00  (CH3COOH)2     
  n10/84  C4H9,n-butyl     n10/84  C4H9,i-butyl     g 1/93  C4H9,s-butyl   
  g 1/93  C4H9,t-butyl     g12/00  C4H10,n-butane   g 8/00  C4H10,isobutane
  g 8/00  *C5              g 5/90  C5H6,1,3cyclo-   g 1/93  C5H8,cyclo-    
  n 4/87  C5H10,1-pentene  g 2/01  C5H10,cyclo-     n10/84  C5H11,pentyl   
  g 1/93  C5H11,t-pentyl   n10/85  C5H12,n-pentane  n10/85  C5H12,i-pentane
  n10/85  CH3C(CH3)2CH3    g 2/93  C6H2             g11/00  C6H5,phenyl    
  g 8/00  C6H5O,phenoxy    g 8/00  C6H6             g 8/00  C6H5OH,phenol  
  g 1/93  C6H10,cyclo-     n 4/87  C6H12,1-hexene   g 6/90  C6H12,cyclo-   
  n10/83  C6H13,n-hexyl    g 6/01  C6H14,n-hexane   g 7/01  C7H7,benzyl    
  g 1/93  C7H8             g12/00  C7H8O,cresol-mx  n 4/87  C7H14,1-heptene
  n10/83  C7H15,n-heptyl   n10/85  C7H16,n-heptane  n10/85  C7H16,2-methylh
  n 4/89  C8H8,styrene     n10/86  C8H10,ethylbenz  n 4/87  C8H16,1-octene 
  n10/83  C8H17,n-octyl    n 4/85  C8H18,n-octane   n 4/85  C8H18,isooctane
  n10/83  C9H19,n-nonyl    g 3/01  C10H8,naphthale  n10/83  C10H21,n-decyl 
  g 8/00  C12H9,o-bipheny  g 8/00  C12H10,biphenyl  g 6/97  *H             
  g 1/01  HCO              g 6/01  HCCO             g 4/02  HO2            
  tpis78  *H2              g 5/01  HCHO,formaldehy  g 6/01  HCOOH          
  g 8/89  H2O              g 6/99  H2O2             g 6/01  (HCOOH)2       
  g 5/97  *O               g 4/02  *OH              tpis89  *O2            
  g 8/01  O3               n 4/83  C(gr)            n 4/83  C(gr)          
  n 4/83  C(gr)            g11/99  H2O(cr)          g 8/01  H2O(L)         
  g 8/01  H2O(L)         

 O/F =   6.060424

                       EFFECTIVE FUEL     EFFECTIVE OXIDANT        MIXTURE
 ENTHALPY                  h(2)/R              h(1)/R               h0/R
 (KG-MOL)(K)/KG       -0.53115398E+03      0.40052063E+03      0.26856331E+03

 KG-FORM.WT./KG             bi(2)               bi(1)               b0i
  *O                   0.19976863E-01      0.62109434E-01      0.56142006E-01
  *H                   0.79907451E-01      0.23750672E-02      0.13356332E-01
  *C                   0.49942157E-01      0.32407776E-03      0.73517123E-02

 POINT ITN      T            O           H           C 
   1   26    3450.729     -14.585     -11.819     -19.084
   2    2    3446.048     -14.599     -11.831     -19.101
 Pinf/Pt = 1.729598
   3    3    3287.916     -14.767     -12.064     -19.596
 Pinf/Pt = 1.726841
   3    2    3288.361     -14.766     -12.063     -19.595
   4    2    3444.631     -14.600     -11.833     -19.105
   4    2    3445.062     -14.600     -11.832     -19.104
   4    2    3445.004     -14.600     -11.832     -19.104
   4    1    3445.002     -14.600     -11.832     -19.104
   2    2    3450.234     -14.587     -11.820     -19.086
 Pinf/Pt = 1.729702
   3    3    3291.610     -14.754     -12.053     -19.581
 Pinf/Pt = 1.726942
   3    2    3292.056     -14.753     -12.052     -19.580
   4    2    3448.812     -14.588     -11.822     -19.090
   4    2    3449.245     -14.588     -11.821     -19.089
   4    2    3449.186     -14.588     -11.822     -19.089
   4    1    3449.185     -14.588     -11.822     -19.089
 END OF CHAMBER ITERATIONS

 WARNING!!  ASSIGNED pip =   1.00000 IS NOT PERMITTED
 TO BE LESS THAN  Pinj/Pc =  1.00700. POINT OMITTED (ROCKET)





              THEORETICAL ROCKET PERFORMANCE ASSUMING EQUILIBRIUM

            COMPOSITION DURING EXPANSION FROM FINITE AREA COMBUSTOR

 Pin =   166.8 PSIA
 Ac/At =  7.6100      Pinj/Pinf =  1.003480
 CASE =                

             REACTANT                    WT FRACTION      ENERGY      TEMP
                                          (SEE NOTE)     KJ/KG-MOL      K  
 OXIDANT     O2                           0.9643437    116267.952   3449.200
 OXIDANT     H2O                          0.0213938    -88335.225   3449.200
 OXIDANT     CO2                          0.0142625   -212660.546   3449.200
 FUEL        PMMA                         1.0000000   -442140.000    293.150

 O/F=    6.06042  %FUEL= 14.163455  R,EQ.RATIO= 0.380848  PHI,EQ.RATIO= 0.328131

                 INJECTOR  COMB END  THROAT
 Pinj/P            1.0000   1.0070   1.7330
 P, BAR            11.500   11.420   6.6361
 T, K             3450.73  3449.18  3292.06
 RHO, KG/CU M    1.1210 0 1.1138 0 6.8876-1
 H, KJ/KG         2232.97  2229.39  1689.81
 U, KJ/KG         1207.11  1204.04   726.33
 G, KJ/KG        -32047.7 -32039.5 -31018.0
 S, KJ/(KG)(K)     9.9343   9.9354   9.9354

 M, (1/n)          27.968   27.970   28.409
 (dLV/dLP)t      -1.04946 -1.04944 -1.04441
 (dLV/dLT)p        1.9050   1.9051   1.8549
 Cp, KJ/(KG)(K)    6.5094   6.5120   6.3942
 GAMMAs            1.1316   1.1315   1.1275
 SON VEL,M/SEC     1077.4   1077.1   1042.3
 MACH NUMBER        0.000    0.079    1.000

 PERFORMANCE PARAMETERS

 Ae/At                      7.6100   1.0000
 CSTAR, M/SEC               1596.4   1596.4
 CF                         0.0531   0.6529
 Ivac, M/SEC               12191.0   1966.7
 Isp, M/SEC                   84.7   1042.3


 MOLE FRACTIONS

 *CO              0.07666  0.07663  0.06876
 *CO2             0.12894  0.12899  0.14010
 *H               0.01464  0.01464  0.01251
 HO2              0.00033  0.00032  0.00024
 *H2              0.00884  0.00884  0.00808
 H2O              0.12195  0.12199  0.13088
 H2O2             0.00001  0.00001  0.00001
 *O               0.08728  0.08724  0.07548
 *OH              0.09698  0.09693  0.08875
 *O2              0.46436  0.46440  0.47519

  * THERMODYNAMIC PROPERTIES FITTED TO 20000.K

    PRODUCTS WHICH WERE CONSIDERED BUT WHOSE MOLE FRACTIONS
    WERE LESS THAN 5.000000E-06 FOR ALL ASSIGNED CONDITIONS

 *C              *CH             CH2             CH3             CH2OH          
 CH3O            CH4             CH3OH           CH3OOH          COOH           
 *C2             C2H             C2H2,acetylene  C2H2,vinylidene CH2CO,ketene   
 O(CH)2O         HO(CO)2OH       C2H3,vinyl      CH3CO,acetyl    C2H4           
 C2H4O,ethylen-o CH3CHO,ethanal  CH3COOH         OHCH2COOH       C2H5           
 C2H6            C2H5OH          CH3OCH3         CH3O2CH3        C2O            
 *C3             C3H3,1-propynl  C3H3,2-propynl  C3H4,allene     C3H4,propyne   
 C3H4,cyclo-     C3H5,allyl      C3H6,propylene  C3H6,cyclo-     C3H6O,propylox 
 C3H6O,acetone   C3H6O,propanal  C3H7,n-propyl   C3H7,i-propyl   C3H8           
 C3H8O,1propanol C3H8O,2propanol C3O2            *C4             C4H2,butadiyne 
 C4H4,1,3-cyclo- C4H6,butadiene  C4H6,1butyne    C4H6,2butyne    C4H6,cyclo-    
 C4H8,1-butene   C4H8,cis2-buten C4H8,tr2-butene C4H8,isobutene  C4H8,cyclo-    
 (CH3COOH)2      C4H9,n-butyl    C4H9,i-butyl    C4H9,s-butyl    C4H9,t-butyl   
 C4H10,n-butane  C4H10,isobutane *C5             C5H6,1,3cyclo-  C5H8,cyclo-    
 C5H10,1-pentene C5H10,cyclo-    C5H11,pentyl    C5H11,t-pentyl  C5H12,n-pentane
 C5H12,i-pentane CH3C(CH3)2CH3   C6H2            C6H5,phenyl     C6H5O,phenoxy  
 C6H6            C6H5OH,phenol   C6H10,cyclo-    C6H12,1-hexene  C6H12,cyclo-   
 C6H13,n-hexyl   C6H14,n-hexane  C7H7,benzyl     C7H8            C7H8O,cresol-mx
 C7H14,1-heptene C7H15,n-heptyl  C7H16,n-heptane C7H16,2-methylh C8H8,styrene   
 C8H10,ethylbenz C8H16,1-octene  C8H17,n-octyl   C8H18,n-octane  C8H18,isooctane
 C9H19,n-nonyl   C10H8,naphthale C10H21,n-decyl  C12H9,o-bipheny C12H10,biphenyl
 HCO             HCCO            HCHO,formaldehy HCOOH           (HCOOH)2       
 O3              C(gr)           H2O(cr)         H2O(L)         

 NOTE. WEIGHT FRACTION OF FUEL IN TOTAL FUELS AND OF OXIDANT IN TOTAL OXIDANTS






 WARNING!!  ASSIGNED pip =   0.00000 IS NOT PERMITTED
 TO BE LESS THAN  Pinj/Pc =  1.00700. POINT OMITTED (ROCKET)





              THEORETICAL ROCKET PERFORMANCE ASSUMING EQUILIBRIUM

            COMPOSITION DURING EXPANSION FROM FINITE AREA COMBUSTOR

 Pin =   166.8 PSIA
 Ac/At =  7.6100      Pinj/Pinf =  1.003480
 CASE =                

             REACTANT                    WT FRACTION      ENERGY      TEMP
                                          (SEE NOTE)     KJ/KG-MOL      K  
 OXIDANT     O2                           0.9643437    116267.952   3449.200
 OXIDANT     H2O                          0.0213938    -88335.225   3449.200
 OXIDANT     CO2                          0.0142625   -212660.546   3449.200
 FUEL        PMMA                         1.0000000   -442140.000    293.150

 O/F=    6.06042  %FUEL= 14.163455  R,EQ.RATIO= 0.380848  PHI,EQ.RATIO= 0.328131

                 INJECTOR  COMB END  THROAT
 Pinj/P            1.0000   1.0070   1.7330
 P, BAR            11.500   11.420   6.6361
 T, K             3450.73  3449.18  3292.06
 RHO, KG/CU M    1.1210 0 1.1138 0 6.8876-1
 H, KJ/KG         2232.97  2229.39  1689.81
 U, KJ/KG         1207.11  1204.04   726.33
 G, KJ/KG        -32047.7 -32039.5 -31018.0
 S, KJ/(KG)(K)     9.9343   9.9354   9.9354

 M, (1/n)          27.968   27.970   28.409
 (dLV/dLP)t      -1.04946 -1.04944 -1.04441
 (dLV/dLT)p        1.9050   1.9051   1.8549
 Cp, KJ/(KG)(K)    6.5094   6.5120   6.3942
 GAMMAs            1.1316   1.1315   1.1275
 SON VEL,M/SEC     1077.4   1077.1   1042.3
 MACH NUMBER        0.000    0.079    1.000

 PERFORMANCE PARAMETERS

 Ae/At                      7.6100   1.0000
 CSTAR, M/SEC               1596.4   1596.4
 CF                         0.0531   0.6529
 Ivac, M/SEC               12191.0   1966.7
 Isp, M/SEC                   84.7   1042.3


 MOLE FRACTIONS

 *CO              0.07666  0.07663  0.06876
 *CO2             0.12894  0.12899  0.14010
 *H               0.01464  0.01464  0.01251
 HO2              0.00033  0.00032  0.00024
 *H2              0.00884  0.00884  0.00808
 H2O              0.12195  0.12199  0.13088
 H2O2             0.00001  0.00001  0.00001
 *O               0.08728  0.08724  0.07548
 *OH              0.09698  0.09693  0.08875
 *O2              0.46436  0.46440  0.47519

  * THERMODYNAMIC PROPERTIES FITTED TO 20000.K

    PRODUCTS WHICH WERE CONSIDERED BUT WHOSE MOLE FRACTIONS
    WERE LESS THAN 5.000000E-06 FOR ALL ASSIGNED CONDITIONS

 *C              *CH             CH2             CH3             CH2OH          
 CH3O            CH4             CH3OH           CH3OOH          COOH           
 *C2             C2H             C2H2,acetylene  C2H2,vinylidene CH2CO,ketene   
 O(CH)2O         HO(CO)2OH       C2H3,vinyl      CH3CO,acetyl    C2H4           
 C2H4O,ethylen-o CH3CHO,ethanal  CH3COOH         OHCH2COOH       C2H5           
 C2H6            C2H5OH          CH3OCH3         CH3O2CH3        C2O            
 *C3             C3H3,1-propynl  C3H3,2-propynl  C3H4,allene     C3H4,propyne   
 C3H4,cyclo-     C3H5,allyl      C3H6,propylene  C3H6,cyclo-     C3H6O,propylox 
 C3H6O,acetone   C3H6O,propanal  C3H7,n-propyl   C3H7,i-propyl   C3H8           
 C3H8O,1propanol C3H8O,2propanol C3O2            *C4             C4H2,butadiyne 
 C4H4,1,3-cyclo- C4H6,butadiene  C4H6,1butyne    C4H6,2butyne    C4H6,cyclo-    
 C4H8,1-butene   C4H8,cis2-buten C4H8,tr2-butene C4H8,isobutene  C4H8,cyclo-    
 (CH3COOH)2      C4H9,n-butyl    C4H9,i-butyl    C4H9,s-butyl    C4H9,t-butyl   
 C4H10,n-butane  C4H10,isobutane *C5             C5H6,1,3cyclo-  C5H8,cyclo-    
 C5H10,1-pentene C5H10,cyclo-    C5H11,pentyl    C5H11,t-pentyl  C5H12,n-pentane
 C5H12,i-pentane CH3C(CH3)2CH3   C6H2            C6H5,phenyl     C6H5O,phenoxy  
 C6H6            C6H5OH,phenol   C6H10,cyclo-    C6H12,1-hexene  C6H12,cyclo-   
 C6H13,n-hexyl   C6H14,n-hexane  C7H7,benzyl     C7H8            C7H8O,cresol-mx
 C7H14,1-heptene C7H15,n-heptyl  C7H16,n-heptane C7H16,2-methylh C8H8,styrene   
 C8H10,ethylbenz C8H16,1-octene  C8H17,n-octyl   C8H18,n-octane  C8H18,isooctane
 C9H19,n-nonyl   C10H8,naphthale C10H21,n-decyl  C12H9,o-bipheny C12H10,biphenyl
 HCO             HCCO            HCHO,formaldehy HCOOH           (HCOOH)2       
 O3              C(gr)           H2O(cr)         H2O(L)         

 NOTE. WEIGHT FRACTION OF FUEL IN TOTAL FUELS AND OF OXIDANT IN TOTAL OXIDANTS






 WARNING!!  ASSIGNED pip =   0.00000 IS NOT PERMITTED
 TO BE LESS THAN  Pinj/Pc =  1.00700. POINT OMITTED (ROCKET)





              THEORETICAL ROCKET PERFORMANCE ASSUMING EQUILIBRIUM

            COMPOSITION DURING EXPANSION FROM FINITE AREA COMBUSTOR

 Pin =   166.8 PSIA
 Ac/At =  7.6100      Pinj/Pinf =  1.003480
 CASE =                

             REACTANT                    WT FRACTION      ENERGY      TEMP
                                          (SEE NOTE)     KJ/KG-MOL      K  
 OXIDANT     O2                           0.9643437    116267.952   3449.200
 OXIDANT     H2O                          0.0213938    -88335.225   3449.200
 OXIDANT     CO2                          0.0142625   -212660.546   3449.200
 FUEL        PMMA                         1.0000000   -442140.000    293.150

 O/F=    6.06042  %FUEL= 14.163455  R,EQ.RATIO= 0.380848  PHI,EQ.RATIO= 0.328131

                 INJECTOR  COMB END  THROAT
 Pinj/P            1.0000   1.0070   1.7330
 P, BAR            11.500   11.420   6.6361
 T, K             3450.73  3449.18  3292.06
 RHO, KG/CU M    1.1210 0 1.1138 0 6.8876-1
 H, KJ/KG         2232.97  2229.39  1689.81
 U, KJ/KG         1207.11  1204.04   726.33
 G, KJ/KG        -32047.7 -32039.5 -31018.0
 S, KJ/(KG)(K)     9.9343   9.9354   9.9354

 M, (1/n)          27.968   27.970   28.409
 (dLV/dLP)t      -1.04946 -1.04944 -1.04441
 (dLV/dLT)p        1.9050   1.9051   1.8549
 Cp, KJ/(KG)(K)    6.5094   6.5120   6.3942
 GAMMAs            1.1316   1.1315   1.1275
 SON VEL,M/SEC     1077.4   1077.1   1042.3
 MACH NUMBER        0.000    0.079    1.000

 PERFORMANCE PARAMETERS

 Ae/At                      7.6100   1.0000
 CSTAR, M/SEC               1596.4   1596.4
 CF                         0.0531   0.6529
 Ivac, M/SEC               12191.0   1966.7
 Isp, M/SEC                   84.7   1042.3


 MOLE FRACTIONS

 *CO              0.07666  0.07663  0.06876
 *CO2             0.12894  0.12899  0.14010
 *H               0.01464  0.01464  0.01251
 HO2              0.00033  0.00032  0.00024
 *H2              0.00884  0.00884  0.00808
 H2O              0.12195  0.12199  0.13088
 H2O2             0.00001  0.00001  0.00001
 *O               0.08728  0.08724  0.07548
 *OH              0.09698  0.09693  0.08875
 *O2              0.46436  0.46440  0.47519

  * THERMODYNAMIC PROPERTIES FITTED TO 20000.K

    PRODUCTS WHICH WERE CONSIDERED BUT WHOSE MOLE FRACTIONS
    WERE LESS THAN 5.000000E-06 FOR ALL ASSIGNED CONDITIONS

 *C              *CH             CH2             CH3             CH2OH          
 CH3O            CH4             CH3OH           CH3OOH          COOH           
 *C2             C2H             C2H2,acetylene  C2H2,vinylidene CH2CO,ketene   
 O(CH)2O         HO(CO)2OH       C2H3,vinyl      CH3CO,acetyl    C2H4           
 C2H4O,ethylen-o CH3CHO,ethanal  CH3COOH         OHCH2COOH       C2H5           
 C2H6            C2H5OH          CH3OCH3         CH3O2CH3        C2O            
 *C3             C3H3,1-propynl  C3H3,2-propynl  C3H4,allene     C3H4,propyne   
 C3H4,cyclo-     C3H5,allyl      C3H6,propylene  C3H6,cyclo-     C3H6O,propylox 
 C3H6O,acetone   C3H6O,propanal  C3H7,n-propyl   C3H7,i-propyl   C3H8           
 C3H8O,1propanol C3H8O,2propanol C3O2            *C4             C4H2,butadiyne 
 C4H4,1,3-cyclo- C4H6,butadiene  C4H6,1butyne    C4H6,2butyne    C4H6,cyclo-    
 C4H8,1-butene   C4H8,cis2-buten C4H8,tr2-butene C4H8,isobutene  C4H8,cyclo-    
 (CH3COOH)2      C4H9,n-butyl    C4H9,i-butyl    C4H9,s-butyl    C4H9,t-butyl   
 C4H10,n-butane  C4H10,isobutane *C5             C5H6,1,3cyclo-  C5H8,cyclo-    
 C5H10,1-pentene C5H10,cyclo-    C5H11,pentyl    C5H11,t-pentyl  C5H12,n-pentane
 C5H12,i-pentane CH3C(CH3)2CH3   C6H2            C6H5,phenyl     C6H5O,phenoxy  
 C6H6            C6H5OH,phenol   C6H10,cyclo-    C6H12,1-hexene  C6H12,cyclo-   
 C6H13,n-hexyl   C6H14,n-hexane  C7H7,benzyl     C7H8            C7H8O,cresol-mx
 C7H14,1-heptene C7H15,n-heptyl  C7H16,n-heptane C7H16,2-methylh C8H8,styrene   
 C8H10,ethylbenz C8H16,1-octene  C8H17,n-octyl   C8H18,n-octane  C8H18,isooctane
 C9H19,n-nonyl   C10H8,naphthale C10H21,n-decyl  C12H9,o-bipheny C12H10,biphenyl
 HCO             HCCO            HCHO,formaldehy HCOOH           (HCOOH)2       
 O3              C(gr)           H2O(cr)         H2O(L)         

 NOTE. WEIGHT FRACTION OF FUEL IN TOTAL FUELS AND OF OXIDANT IN TOTAL OXIDANTS






 WARNING!!  ASSIGNED pip =   0.00000 IS NOT PERMITTED
 TO BE LESS THAN  Pinj/Pc =  1.00700. POINT OMITTED (ROCKET)





              THEORETICAL ROCKET PERFORMANCE ASSUMING EQUILIBRIUM

            COMPOSITION DURING EXPANSION FROM FINITE AREA COMBUSTOR

 Pin =   166.8 PSIA
 Ac/At =  7.6100      Pinj/Pinf =  1.003480
 CASE =                

             REACTANT                    WT FRACTION      ENERGY      TEMP
                                          (SEE NOTE)     KJ/KG-MOL      K  
 OXIDANT     O2                           0.9643437    116267.952   3449.200
 OXIDANT     H2O                          0.0213938    -88335.225   3449.200
 OXIDANT     CO2                          0.0142625   -212660.546   3449.200
 FUEL        PMMA                         1.0000000   -442140.000    293.150

 O/F=    6.06042  %FUEL= 14.163455  R,EQ.RATIO= 0.380848  PHI,EQ.RATIO= 0.328131

                 INJECTOR  COMB END  THROAT
 Pinj/P            1.0000   1.0070   1.7330
 P, BAR            11.500   11.420   6.6361
 T, K             3450.73  3449.18  3292.06
 RHO, KG/CU M    1.1210 0 1.1138 0 6.8876-1
 H, KJ/KG         2232.97  2229.39  1689.81
 U, KJ/KG         1207.11  1204.04   726.33
 G, KJ/KG        -32047.7 -32039.5 -31018.0
 S, KJ/(KG)(K)     9.9343   9.9354   9.9354

 M, (1/n)          27.968   27.970   28.409
 (dLV/dLP)t      -1.04946 -1.04944 -1.04441
 (dLV/dLT)p        1.9050   1.9051   1.8549
 Cp, KJ/(KG)(K)    6.5094   6.5120   6.3942
 GAMMAs            1.1316   1.1315   1.1275
 SON VEL,M/SEC     1077.4   1077.1   1042.3
 MACH NUMBER        0.000    0.079    1.000

 PERFORMANCE PARAMETERS

 Ae/At                      7.6100   1.0000
 CSTAR, M/SEC               1596.4   1596.4
 CF                         0.0531   0.6529
 Ivac, M/SEC               12191.0   1966.7
 Isp, M/SEC                   84.7   1042.3


 MOLE FRACTIONS

 *CO              0.07666  0.07663  0.06876
 *CO2             0.12894  0.12899  0.14010
 *H               0.01464  0.01464  0.01251
 HO2              0.00033  0.00032  0.00024
 *H2              0.00884  0.00884  0.00808
 H2O              0.12195  0.12199  0.13088
 H2O2             0.00001  0.00001  0.00001
 *O               0.08728  0.08724  0.07548
 *OH              0.09698  0.09693  0.08875
 *O2              0.46436  0.46440  0.47519

  * THERMODYNAMIC PROPERTIES FITTED TO 20000.K

    PRODUCTS WHICH WERE CONSIDERED BUT WHOSE MOLE FRACTIONS
    WERE LESS THAN 5.000000E-06 FOR ALL ASSIGNED CONDITIONS

 *C              *CH             CH2             CH3             CH2OH          
 CH3O            CH4             CH3OH           CH3OOH          COOH           
 *C2             C2H             C2H2,acetylene  C2H2,vinylidene CH2CO,ketene   
 O(CH)2O         HO(CO)2OH       C2H3,vinyl      CH3CO,acetyl    C2H4           
 C2H4O,ethylen-o CH3CHO,ethanal  CH3COOH         OHCH2COOH       C2H5           
 C2H6            C2H5OH          CH3OCH3         CH3O2CH3        C2O            
 *C3             C3H3,1-propynl  C3H3,2-propynl  C3H4,allene     C3H4,propyne   
 C3H4,cyclo-     C3H5,allyl      C3H6,propylene  C3H6,cyclo-     C3H6O,propylox 
 C3H6O,acetone   C3H6O,propanal  C3H7,n-propyl   C3H7,i-propyl   C3H8           
 C3H8O,1propanol C3H8O,2propanol C3O2            *C4             C4H2,butadiyne 
 C4H4,1,3-cyclo- C4H6,butadiene  C4H6,1butyne    C4H6,2butyne    C4H6,cyclo-    
 C4H8,1-butene   C4H8,cis2-buten C4H8,tr2-butene C4H8,isobutene  C4H8,cyclo-    
 (CH3COOH)2      C4H9,n-butyl    C4H9,i-butyl    C4H9,s-butyl    C4H9,t-butyl   
 C4H10,n-butane  C4H10,isobutane *C5             C5H6,1,3cyclo-  C5H8,cyclo-    
 C5H10,1-pentene C5H10,cyclo-    C5H11,pentyl    C5H11,t-pentyl  C5H12,n-pentane
 C5H12,i-pentane CH3C(CH3)2CH3   C6H2            C6H5,phenyl     C6H5O,phenoxy  
 C6H6            C6H5OH,phenol   C6H10,cyclo-    C6H12,1-hexene  C6H12,cyclo-   
 C6H13,n-hexyl   C6H14,n-hexane  C7H7,benzyl     C7H8            C7H8O,cresol-mx
 C7H14,1-heptene C7H15,n-heptyl  C7H16,n-heptane C7H16,2-methylh C8H8,styrene   
 C8H10,ethylbenz C8H16,1-octene  C8H17,n-octyl   C8H18,n-octane  C8H18,isooctane
 C9H19,n-nonyl   C10H8,naphthale C10H21,n-decyl  C12H9,o-bipheny C12H10,biphenyl
 HCO             HCCO            HCHO,formaldehy HCOOH           (HCOOH)2       
 O3              C(gr)           H2O(cr)         H2O(L)         

 NOTE. WEIGHT FRACTION OF FUEL IN TOTAL FUELS AND OF OXIDANT IN TOTAL OXIDANTS






 WARNING!!  ASSIGNED pip =   0.00000 IS NOT PERMITTED
 TO BE LESS THAN  Pinj/Pc =  1.00700. POINT OMITTED (ROCKET)





              THEORETICAL ROCKET PERFORMANCE ASSUMING EQUILIBRIUM

            COMPOSITION DURING EXPANSION FROM FINITE AREA COMBUSTOR

 Pin =   166.8 PSIA
 Ac/At =  7.6100      Pinj/Pinf =  1.003480
 CASE =                

             REACTANT                    WT FRACTION      ENERGY      TEMP
                                          (SEE NOTE)     KJ/KG-MOL      K  
 OXIDANT     O2                           0.9643437    116267.952   3449.200
 OXIDANT     H2O                          0.0213938    -88335.225   3449.200
 OXIDANT     CO2                          0.0142625   -212660.546   3449.200
 FUEL        PMMA                         1.0000000   -442140.000    293.150

 O/F=    6.06042  %FUEL= 14.163455  R,EQ.RATIO= 0.380848  PHI,EQ.RATIO= 0.328131

                 INJECTOR  COMB END  THROAT
 Pinj/P            1.0000   1.0070   1.7330
 P, BAR            11.500   11.420   6.6361
 T, K             3450.73  3449.18  3292.06
 RHO, KG/CU M    1.1210 0 1.1138 0 6.8876-1
 H, KJ/KG         2232.97  2229.39  1689.81
 U, KJ/KG         1207.11  1204.04   726.33
 G, KJ/KG        -32047.7 -32039.5 -31018.0
 S, KJ/(KG)(K)     9.9343   9.9354   9.9354

 M, (1/n)          27.968   27.970   28.409
 (dLV/dLP)t      -1.04946 -1.04944 -1.04441
 (dLV/dLT)p        1.9050   1.9051   1.8549
 Cp, KJ/(KG)(K)    6.5094   6.5120   6.3942
 GAMMAs            1.1316   1.1315   1.1275
 SON VEL,M/SEC     1077.4   1077.1   1042.3
 MACH NUMBER        0.000    0.079    1.000

 PERFORMANCE PARAMETERS

 Ae/At                      7.6100   1.0000
 CSTAR, M/SEC               1596.4   1596.4
 CF                         0.0531   0.6529
 Ivac, M/SEC               12191.0   1966.7
 Isp, M/SEC                   84.7   1042.3


 MOLE FRACTIONS

 *CO              0.07666  0.07663  0.06876
 *CO2             0.12894  0.12899  0.14010
 *H               0.01464  0.01464  0.01251
 HO2              0.00033  0.00032  0.00024
 *H2              0.00884  0.00884  0.00808
 H2O              0.12195  0.12199  0.13088
 H2O2             0.00001  0.00001  0.00001
 *O               0.08728  0.08724  0.07548
 *OH              0.09698  0.09693  0.08875
 *O2              0.46436  0.46440  0.47519

  * THERMODYNAMIC PROPERTIES FITTED TO 20000.K

    PRODUCTS WHICH WERE CONSIDERED BUT WHOSE MOLE FRACTIONS
    WERE LESS THAN 5.000000E-06 FOR ALL ASSIGNED CONDITIONS

 *C              *CH             CH2             CH3             CH2OH          
 CH3O            CH4             CH3OH           CH3OOH          COOH           
 *C2             C2H             C2H2,acetylene  C2H2,vinylidene CH2CO,ketene   
 O(CH)2O         HO(CO)2OH       C2H3,vinyl      CH3CO,acetyl    C2H4           
 C2H4O,ethylen-o CH3CHO,ethanal  CH3COOH         OHCH2COOH       C2H5           
 C2H6            C2H5OH          CH3OCH3         CH3O2CH3        C2O            
 *C3             C3H3,1-propynl  C3H3,2-propynl  C3H4,allene     C3H4,propyne   
 C3H4,cyclo-     C3H5,allyl      C3H6,propylene  C3H6,cyclo-     C3H6O,propylox 
 C3H6O,acetone   C3H6O,propanal  C3H7,n-propyl   C3H7,i-propyl   C3H8           
 C3H8O,1propanol C3H8O,2propanol C3O2            *C4             C4H2,butadiyne 
 C4H4,1,3-cyclo- C4H6,butadiene  C4H6,1butyne    C4H6,2butyne    C4H6,cyclo-    
 C4H8,1-butene   C4H8,cis2-buten C4H8,tr2-butene C4H8,isobutene  C4H8,cyclo-    
 (CH3COOH)2      C4H9,n-butyl    C4H9,i-butyl    C4H9,s-butyl    C4H9,t-butyl   
 C4H10,n-butane  C4H10,isobutane *C5             C5H6,1,3cyclo-  C5H8,cyclo-    
 C5H10,1-pentene C5H10,cyclo-    C5H11,pentyl    C5H11,t-pentyl  C5H12,n-pentane
 C5H12,i-pentane CH3C(CH3)2CH3   C6H2            C6H5,phenyl     C6H5O,phenoxy  
 C6H6            C6H5OH,phenol   C6H10,cyclo-    C6H12,1-hexene  C6H12,cyclo-   
 C6H13,n-hexyl   C6H14,n-hexane  C7H7,benzyl     C7H8            C7H8O,cresol-mx
 C7H14,1-heptene C7H15,n-heptyl  C7H16,n-heptane C7H16,2-methylh C8H8,styrene   
 C8H10,ethylbenz C8H16,1-octene  C8H17,n-octyl   C8H18,n-octane  C8H18,isooctane
 C9H19,n-nonyl   C10H8,naphthale C10H21,n-decyl  C12H9,o-bipheny C12H10,biphenyl
 HCO             HCCO            HCHO,formaldehy HCOOH           (HCOOH)2       
 O3              C(gr)           H2O(cr)         H2O(L)         

 NOTE. WEIGHT FRACTION OF FUEL IN TOTAL FUELS AND OF OXIDANT IN TOTAL OXIDANTS






 WARNING!!  ASSIGNED pip =   0.00000 IS NOT PERMITTED
 TO BE LESS THAN  Pinj/Pc =  1.00700. POINT OMITTED (ROCKET)





              THEORETICAL ROCKET PERFORMANCE ASSUMING EQUILIBRIUM

            COMPOSITION DURING EXPANSION FROM FINITE AREA COMBUSTOR

 Pin =   166.8 PSIA
 Ac/At =  7.6100      Pinj/Pinf =  1.003480
 CASE =                

             REACTANT                    WT FRACTION      ENERGY      TEMP
                                          (SEE NOTE)     KJ/KG-MOL      K  
 OXIDANT     O2                           0.9643437    116267.952   3449.200
 OXIDANT     H2O                          0.0213938    -88335.225   3449.200
 OXIDANT     CO2                          0.0142625   -212660.546   3449.200
 FUEL        PMMA                         1.0000000   -442140.000    293.150

 O/F=    6.06042  %FUEL= 14.163455  R,EQ.RATIO= 0.380848  PHI,EQ.RATIO= 0.328131

                 INJECTOR  COMB END  THROAT
 Pinj/P            1.0000   1.0070   1.7330
 P, BAR            11.500   11.420   6.6361
 T, K             3450.73  3449.18  3292.06
 RHO, KG/CU M    1.1210 0 1.1138 0 6.8876-1
 H, KJ/KG         2232.97  2229.39  1689.81
 U, KJ/KG         1207.11  1204.04   726.33
 G, KJ/KG        -32047.7 -32039.5 -31018.0
 S, KJ/(KG)(K)     9.9343   9.9354   9.9354

 M, (1/n)          27.968   27.970   28.409
 (dLV/dLP)t      -1.04946 -1.04944 -1.04441
 (dLV/dLT)p        1.9050   1.9051   1.8549
 Cp, KJ/(KG)(K)    6.5094   6.5120   6.3942
 GAMMAs            1.1316   1.1315   1.1275
 SON VEL,M/SEC     1077.4   1077.1   1042.3
 MACH NUMBER        0.000    0.079    1.000

 PERFORMANCE PARAMETERS

 Ae/At                      7.6100   1.0000
 CSTAR, M/SEC               1596.4   1596.4
 CF                         0.0531   0.6529
 Ivac, M/SEC               12191.0   1966.7
 Isp, M/SEC                   84.7   1042.3


 MOLE FRACTIONS

 *CO              0.07666  0.07663  0.06876
 *CO2             0.12894  0.12899  0.14010
 *H               0.01464  0.01464  0.01251
 HO2              0.00033  0.00032  0.00024
 *H2              0.00884  0.00884  0.00808
 H2O              0.12195  0.12199  0.13088
 H2O2             0.00001  0.00001  0.00001
 *O               0.08728  0.08724  0.07548
 *OH              0.09698  0.09693  0.08875
 *O2              0.46436  0.46440  0.47519

  * THERMODYNAMIC PROPERTIES FITTED TO 20000.K

    PRODUCTS WHICH WERE CONSIDERED BUT WHOSE MOLE FRACTIONS
    WERE LESS THAN 5.000000E-06 FOR ALL ASSIGNED CONDITIONS

 *C              *CH             CH2             CH3             CH2OH          
 CH3O            CH4             CH3OH           CH3OOH          COOH           
 *C2             C2H             C2H2,acetylene  C2H2,vinylidene CH2CO,ketene   
 O(CH)2O         HO(CO)2OH       C2H3,vinyl      CH3CO,acetyl    C2H4           
 C2H4O,ethylen-o CH3CHO,ethanal  CH3COOH         OHCH2COOH       C2H5           
 C2H6            C2H5OH          CH3OCH3         CH3O2CH3        C2O            
 *C3             C3H3,1-propynl  C3H3,2-propynl  C3H4,allene     C3H4,propyne   
 C3H4,cyclo-     C3H5,allyl      C3H6,propylene  C3H6,cyclo-     C3H6O,propylox 
 C3H6O,acetone   C3H6O,propanal  C3H7,n-propyl   C3H7,i-propyl   C3H8           
 C3H8O,1propanol C3H8O,2propanol C3O2            *C4             C4H2,butadiyne 
 C4H4,1,3-cyclo- C4H6,butadiene  C4H6,1butyne    C4H6,2butyne    C4H6,cyclo-    
 C4H8,1-butene   C4H8,cis2-buten C4H8,tr2-butene C4H8,isobutene  C4H8,cyclo-    
 (CH3COOH)2      C4H9,n-butyl    C4H9,i-butyl    C4H9,s-butyl    C4H9,t-butyl   
 C4H10,n-butane  C4H10,isobutane *C5             C5H6,1,3cyclo-  C5H8,cyclo-    
 C5H10,1-pentene C5H10,cyclo-    C5H11,pentyl    C5H11,t-pentyl  C5H12,n-pentane
 C5H12,i-pentane CH3C(CH3)2CH3   C6H2            C6H5,phenyl     C6H5O,phenoxy  
 C6H6            C6H5OH,phenol   C6H10,cyclo-    C6H12,1-hexene  C6H12,cyclo-   
 C6H13,n-hexyl   C6H14,n-hexane  C7H7,benzyl     C7H8            C7H8O,cresol-mx
 C7H14,1-heptene C7H15,n-heptyl  C7H16,n-heptane C7H16,2-methylh C8H8,styrene   
 C8H10,ethylbenz C8H16,1-octene  C8H17,n-octyl   C8H18,n-octane  C8H18,isooctane
 C9H19,n-nonyl   C10H8,naphthale C10H21,n-decyl  C12H9,o-bipheny C12H10,biphenyl
 HCO             HCCO            HCHO,formaldehy HCOOH           (HCOOH)2       
 O3              C(gr)           H2O(cr)         H2O(L)         

 NOTE. WEIGHT FRACTION OF FUEL IN TOTAL FUELS AND OF OXIDANT IN TOTAL OXIDANTS






 WARNING!!  ASSIGNED pip =   0.00000 IS NOT PERMITTED
 TO BE LESS THAN  Pinj/Pc =  1.00700. POINT OMITTED (ROCKET)





              THEORETICAL ROCKET PERFORMANCE ASSUMING EQUILIBRIUM

            COMPOSITION DURING EXPANSION FROM FINITE AREA COMBUSTOR

 Pin =   166.8 PSIA
 Ac/At =  7.6100      Pinj/Pinf =  1.003480
 CASE =                

             REACTANT                    WT FRACTION      ENERGY      TEMP
                                          (SEE NOTE)     KJ/KG-MOL      K  
 OXIDANT     O2                           0.9643437    116267.952   3449.200
 OXIDANT     H2O                          0.0213938    -88335.225   3449.200
 OXIDANT     CO2                          0.0142625   -212660.546   3449.200
 FUEL        PMMA                         1.0000000   -442140.000    293.150

 O/F=    6.06042  %FUEL= 14.163455  R,EQ.RATIO= 0.380848  PHI,EQ.RATIO= 0.328131

                 INJECTOR  COMB END  THROAT
 Pinj/P            1.0000   1.0070   1.7330
 P, BAR            11.500   11.420   6.6361
 T, K             3450.73  3449.18  3292.06
 RHO, KG/CU M    1.1210 0 1.1138 0 6.8876-1
 H, KJ/KG         2232.97  2229.39  1689.81
 U, KJ/KG         1207.11  1204.04   726.33
 G, KJ/KG        -32047.7 -32039.5 -31018.0
 S, KJ/(KG)(K)     9.9343   9.9354   9.9354

 M, (1/n)          27.968   27.970   28.409
 (dLV/dLP)t      -1.04946 -1.04944 -1.04441
 (dLV/dLT)p        1.9050   1.9051   1.8549
 Cp, KJ/(KG)(K)    6.5094   6.5120   6.3942
 GAMMAs            1.1316   1.1315   1.1275
 SON VEL,M/SEC     1077.4   1077.1   1042.3
 MACH NUMBER        0.000    0.079    1.000

 PERFORMANCE PARAMETERS

 Ae/At                      7.6100   1.0000
 CSTAR, M/SEC               1596.4   1596.4
 CF                         0.0531   0.6529
 Ivac, M/SEC               12191.0   1966.7
 Isp, M/SEC                   84.7   1042.3


 MOLE FRACTIONS

 *CO              0.07666  0.07663  0.06876
 *CO2             0.12894  0.12899  0.14010
 *H               0.01464  0.01464  0.01251
 HO2              0.00033  0.00032  0.00024
 *H2              0.00884  0.00884  0.00808
 H2O              0.12195  0.12199  0.13088
 H2O2             0.00001  0.00001  0.00001
 *O               0.08728  0.08724  0.07548
 *OH              0.09698  0.09693  0.08875
 *O2              0.46436  0.46440  0.47519

  * THERMODYNAMIC PROPERTIES FITTED TO 20000.K

    PRODUCTS WHICH WERE CONSIDERED BUT WHOSE MOLE FRACTIONS
    WERE LESS THAN 5.000000E-06 FOR ALL ASSIGNED CONDITIONS

 *C              *CH             CH2             CH3             CH2OH          
 CH3O            CH4             CH3OH           CH3OOH          COOH           
 *C2             C2H             C2H2,acetylene  C2H2,vinylidene CH2CO,ketene   
 O(CH)2O         HO(CO)2OH       C2H3,vinyl      CH3CO,acetyl    C2H4           
 C2H4O,ethylen-o CH3CHO,ethanal  CH3COOH         OHCH2COOH       C2H5           
 C2H6            C2H5OH          CH3OCH3         CH3O2CH3        C2O            
 *C3             C3H3,1-propynl  C3H3,2-propynl  C3H4,allene     C3H4,propyne   
 C3H4,cyclo-     C3H5,allyl      C3H6,propylene  C3H6,cyclo-     C3H6O,propylox 
 C3H6O,acetone   C3H6O,propanal  C3H7,n-propyl   C3H7,i-propyl   C3H8           
 C3H8O,1propanol C3H8O,2propanol C3O2            *C4             C4H2,butadiyne 
 C4H4,1,3-cyclo- C4H6,butadiene  C4H6,1butyne    C4H6,2butyne    C4H6,cyclo-    
 C4H8,1-butene   C4H8,cis2-buten C4H8,tr2-butene C4H8,isobutene  C4H8,cyclo-    
 (CH3COOH)2      C4H9,n-butyl    C4H9,i-butyl    C4H9,s-butyl    C4H9,t-butyl   
 C4H10,n-butane  C4H10,isobutane *C5             C5H6,1,3cyclo-  C5H8,cyclo-    
 C5H10,1-pentene C5H10,cyclo-    C5H11,pentyl    C5H11,t-pentyl  C5H12,n-pentane
 C5H12,i-pentane CH3C(CH3)2CH3   C6H2            C6H5,phenyl     C6H5O,phenoxy  
 C6H6            C6H5OH,phenol   C6H10,cyclo-    C6H12,1-hexene  C6H12,cyclo-   
 C6H13,n-hexyl   C6H14,n-hexane  C7H7,benzyl     C7H8            C7H8O,cresol-mx
 C7H14,1-heptene C7H15,n-heptyl  C7H16,n-heptane C7H16,2-methylh C8H8,styrene   
 C8H10,ethylbenz C8H16,1-octene  C8H17,n-octyl   C8H18,n-octane  C8H18,isooctane
 C9H19,n-nonyl   C10H8,naphthale C10H21,n-decyl  C12H9,o-bipheny C12H10,biphenyl
 HCO             HCCO            HCHO,formaldehy HCOOH           (HCOOH)2       
 O3              C(gr)           H2O(cr)         H2O(L)         

 NOTE. WEIGHT FRACTION OF FUEL IN TOTAL FUELS AND OF OXIDANT IN TOTAL OXIDANTS
