
 *******************************************************************************

         NASA-GLENN CHEMICAL EQUILIBRIUM PROGRAM CEA2, MAY 21, 2004
                   BY  BONNIE MCBRIDE AND SANFORD GORDON
      REFS: NASA RP-1311, PART I, 1994 AND NASA RP-1311, PART II, 1996

 *******************************************************************************



 prob rocket fac p,bar=7.7,ac/at=3.69822485207,
 o/f=2.84334682041, pi/pe=1, eq
 react
 	oxid=O2  wt=0.964323644465	t,k=3639.6
 	oxid=H2O wt=0.0214058133208	t,k=3639.6
 	oxid=CO2 wt=0.0142705422139	t,k=3639.6
 	fuel=PP  wt=100 t,k=293.15
 	h,kj/mol=-78.826  C 3 H 6
 end

 OPTIONS: TP=F  HP=F  SP=F  TV=F  UV=F  SV=F  DETN=F  SHOCK=F  REFL=F  INCD=F
 RKT=T  FROZ=F  EQL=T  IONS=F  SIUNIT=T  DEBUGF=F  SHKDBG=F  DETDBG=F  TRNSPT=F

 TRACE= 0.00E+00  S/R= 0.000000E+00  H/R= 0.000000E+00  U/R= 0.000000E+00

 Pc,BAR =     7.700000

 Pc/P =     1.0000

 SUBSONIC AREA RATIOS =

 SUPERSONIC AREA RATIOS =

 NFZ=  1  Mdot/Ac= 0.000000E+00  Ac/At= 3.698225E+00

    REACTANT          WT.FRAC   (ENERGY/R),K   TEMP,K  DENSITY
        EXPLODED FORMULA
 O: O2               0.964324   0.149222E+05  3639.60  0.0000
          O  2.00000
 O: H2O              0.021406  -0.928788E+04  3639.60  0.0000
          H  2.00000  O  1.00000
 O: CO2              0.014271  -0.241403E+05  3639.60  0.0000
          C  1.00000  O  2.00000
 F: PP               1.000000  -0.948053E+04   293.15  0.0000
          C  3.00000  H  6.00000

  SPECIES BEING CONSIDERED IN THIS SYSTEM
 (CONDENSED PHASE MAY HAVE NAME LISTED SEVERAL TIMES)
  LAST thermo.inp UPDATE:    9/09/04

  g 7/97  *C               tpis79  *CH              g 4/02  CH2            
  g 4/02  CH3              g11/00  CH2OH            g 7/00  CH3O           
  g 8/99  CH4              g 7/00  CH3OH            srd 01  CH3OOH         
  tpis79  *CO              g 9/99  *CO2             tpis91  COOH           
  tpis91  *C2              g 6/01  C2H              g 1/91  C2H2,acetylene 
  g 5/01  C2H2,vinylidene  g 4/02  CH2CO,ketene     g 3/02  O(CH)2O        
  srd 01  HO(CO)2OH        g 7/01  C2H3,vinyl       g 6/96  CH3CO,acetyl   
  g 1/00  C2H4             g 8/88  C2H4O,ethylen-o  g 8/88  CH3CHO,ethanal 
  g 6/00  CH3COOH          srd 01  OHCH2COOH        g 7/00  C2H5           
  g 7/00  C2H6             g 8/88  C2H5OH           g 7/00  CH3OCH3        
  srd 01  CH3O2CH3         g 8/00  C2O              tpis79  *C3            
  n 4/98  C3H3,1-propynl   n 4/98  C3H3,2-propynl   g 2/00  C3H4,allene    
  g 1/00  C3H4,propyne     g 5/90  C3H4,cyclo-      g 3/01  C3H5,allyl     
  g 2/00  C3H6,propylene   g 1/00  C3H6,cyclo-      g 6/01  C3H6O,propylox 
  g 6/97  C3H6O,acetone    g 1/02  C3H6O,propanal   g 7/01  C3H7,n-propyl  
  g 9/85  C3H7,i-propyl    g 2/00  C3H8             g 2/00  C3H8O,1propanol
  g 2/00  C3H8O,2propanol  g 7/88  C3O2             g tpis  *C4            
  g 7/01  C4H2,butadiyne   g 8/00  C4H4,1,3-cyclo-  n10/92  C4H6,butadiene 
  n10/93  C4H6,1butyne     n10/93  C4H6,2butyne     g 8/00  C4H6,cyclo-    
  n 4/88  C4H8,1-butene    n 4/88  C4H8,cis2-buten  n 4/88  C4H8,tr2-butene
  n 4/88  C4H8,isobutene   g 8/00  C4H8,cyclo-      g10/00  (CH3COOH)2     
  n10/84  C4H9,n-butyl     n10/84  C4H9,i-butyl     g 1/93  C4H9,s-butyl   
  g 1/93  C4H9,t-butyl     g12/00  C4H10,n-butane   g 8/00  C4H10,isobutane
  g 8/00  *C5              g 5/90  C5H6,1,3cyclo-   g 1/93  C5H8,cyclo-    
  n 4/87  C5H10,1-pentene  g 2/01  C5H10,cyclo-     n10/84  C5H11,pentyl   
  g 1/93  C5H11,t-pentyl   n10/85  C5H12,n-pentane  n10/85  C5H12,i-pentane
  n10/85  CH3C(CH3)2CH3    g 2/93  C6H2             g11/00  C6H5,phenyl    
  g 8/00  C6H5O,phenoxy    g 8/00  C6H6             g 8/00  C6H5OH,phenol  
  g 1/93  C6H10,cyclo-     n 4/87  C6H12,1-hexene   g 6/90  C6H12,cyclo-   
  n10/83  C6H13,n-hexyl    g 6/01  C6H14,n-hexane   g 7/01  C7H7,benzyl    
  g 1/93  C7H8             g12/00  C7H8O,cresol-mx  n 4/87  C7H14,1-heptene
  n10/83  C7H15,n-heptyl   n10/85  C7H16,n-heptane  n10/85  C7H16,2-methylh
  n 4/89  C8H8,styrene     n10/86  C8H10,ethylbenz  n 4/87  C8H16,1-octene 
  n10/83  C8H17,n-octyl    n 4/85  C8H18,n-octane   n 4/85  C8H18,isooctane
  n10/83  C9H19,n-nonyl    g 3/01  C10H8,naphthale  n10/83  C10H21,n-decyl 
  g 8/00  C12H9,o-bipheny  g 8/00  C12H10,biphenyl  g 6/97  *H             
  g 1/01  HCO              g 6/01  HCCO             g 4/02  HO2            
  tpis78  *H2              g 5/01  HCHO,formaldehy  g 6/01  HCOOH          
  g 8/89  H2O              g 6/99  H2O2             g 6/01  (HCOOH)2       
  g 5/97  *O               g 4/02  *OH              tpis89  *O2            
  g 8/01  O3               n 4/83  C(gr)            n 4/83  C(gr)          
  n 4/83  C(gr)            g11/99  H2O(cr)          g 8/01  H2O(L)         
  g 8/01  H2O(L)         

 O/F =   2.843347

                       EFFECTIVE FUEL     EFFECTIVE OXIDANT        MIXTURE
 ENTHALPY                  h(2)/R              h(1)/R               h0/R
 (KG-MOL)(K)/KG       -0.22529927E+03      0.43083427E+03      0.26011496E+03

 KG-FORM.WT./KG             bi(2)               bi(1)               b0i
  *O                   0.00000000E+00      0.62109212E-01      0.45949023E-01
  *H                   0.14258643E+00      0.23764064E-02      0.38857638E-01
  *C                   0.71293216E-01      0.32426049E-03      0.18789666E-01

 POINT ITN      T            O           H           C 
   1   24    3642.226     -16.007     -10.951     -16.685
   2    2    3634.841     -16.022     -10.968     -16.710
 Pinf/Pt = 1.729757
   3    3    3477.359     -16.216     -11.169     -17.068
 Pinf/Pt = 1.726022
   3    2    3477.954     -16.216     -11.169     -17.066
   4    2    3630.725     -16.027     -10.973     -16.719
   4    2    3630.330     -16.028     -10.973     -16.720
   4    1    3630.309     -16.028     -10.973     -16.720
   2    2    3639.593     -16.012     -10.957     -16.694
 Pinf/Pt = 1.729851
   3    3    3481.648     -16.206     -11.159     -17.051
 Pinf/Pt = 1.726109
   3    2    3482.246     -16.205     -11.158     -17.050
   4    2    3635.465     -16.017     -10.962     -16.703
   4    2    3635.068     -16.018     -10.962     -16.704
   4    1    3635.048     -16.018     -10.962     -16.704
 END OF CHAMBER ITERATIONS

 WARNING!!  ASSIGNED pip =   1.00000 IS NOT PERMITTED
 TO BE LESS THAN  Pinj/Pc =  1.03027. POINT OMITTED (ROCKET)





              THEORETICAL ROCKET PERFORMANCE ASSUMING EQUILIBRIUM

            COMPOSITION DURING EXPANSION FROM FINITE AREA COMBUSTOR

 Pin =   111.7 PSIA
 Ac/At =  3.6982      Pinj/Pinf =  1.014805
 CASE =                

             REACTANT                    WT FRACTION      ENERGY      TEMP
                                          (SEE NOTE)     KJ/KG-MOL      K  
 OXIDANT     O2                           0.9643236    124070.459   3639.600
 OXIDANT     H2O                          0.0214058    -77224.139   3639.600
 OXIDANT     CO2                          0.0142705   -200714.464   3639.600
 FUEL        PP                           1.0000000    -78826.000    293.150

 O/F=    2.84335  %FUEL= 26.018989  R,EQ.RATIO= 1.240683  PHI,EQ.RATIO= 1.248017

                 INJECTOR  COMB END  THROAT
 Pinj/P            1.0000   1.0303   1.7517
 P, BAR            7.7000   7.4738   4.3958
 T, K             3642.23  3635.05  3482.25
 RHO, KG/CU M    5.2886-1 5.1448-1 3.2151-1
 H, KJ/KG         2162.73  2140.74  1392.78
 U, KJ/KG          706.77   688.07   25.537
 G, KJ/KG        -44653.8 -44604.8 -43387.8
 S, KJ/(KG)(K)    12.8538  12.8597  12.8597

 M, (1/n)          20.800   20.805   21.176
 (dLV/dLP)t      -1.08768 -1.08765 -1.08366
 (dLV/dLT)p        2.4675   2.4700   2.4690
 Cp, KJ/(KG)(K)   11.9188  11.9523  12.2242
 GAMMAs            1.1319   1.1316   1.1263
 SON VEL,M/SEC     1283.7   1282.2   1240.9
 MACH NUMBER        0.000    0.164    1.000

 PERFORMANCE PARAMETERS

 Ae/At                      3.6982   1.0000
 CSTAR, M/SEC               1901.8   1901.8
 CF                         0.1103   0.6525
 Ivac, M/SEC                7137.5   2342.7
 Isp, M/SEC                  209.7   1240.9


 MOLE FRACTIONS

 *CO              0.30623  0.30613  0.30346
 *CO2             0.08458  0.08478  0.09443
 *H               0.08785  0.08782  0.08112
 HCO              0.00001  0.00001  0.00001
 HO2              0.00009  0.00009  0.00007
 *H2              0.09144  0.09141  0.08967
 H2O              0.21416  0.21444  0.23029
 H2O2             0.00001  0.00001  0.00000
 *O               0.05625  0.05615  0.04990
 *OH              0.10906  0.10882  0.10173
 *O2              0.05033  0.05033  0.04932

  * THERMODYNAMIC PROPERTIES FITTED TO 20000.K

    PRODUCTS WHICH WERE CONSIDERED BUT WHOSE MOLE FRACTIONS
    WERE LESS THAN 5.000000E-06 FOR ALL ASSIGNED CONDITIONS

 *C              *CH             CH2             CH3             CH2OH          
 CH3O            CH4             CH3OH           CH3OOH          COOH           
 *C2             C2H             C2H2,acetylene  C2H2,vinylidene CH2CO,ketene   
 O(CH)2O         HO(CO)2OH       C2H3,vinyl      CH3CO,acetyl    C2H4           
 C2H4O,ethylen-o CH3CHO,ethanal  CH3COOH         OHCH2COOH       C2H5           
 C2H6            C2H5OH          CH3OCH3         CH3O2CH3        C2O            
 *C3             C3H3,1-propynl  C3H3,2-propynl  C3H4,allene     C3H4,propyne   
 C3H4,cyclo-     C3H5,allyl      C3H6,propylene  C3H6,cyclo-     C3H6O,propylox 
 C3H6O,acetone   C3H6O,propanal  C3H7,n-propyl   C3H7,i-propyl   C3H8           
 C3H8O,1propanol C3H8O,2propanol C3O2            *C4             C4H2,butadiyne 
 C4H4,1,3-cyclo- C4H6,butadiene  C4H6,1butyne    C4H6,2butyne    C4H6,cyclo-    
 C4H8,1-butene   C4H8,cis2-buten C4H8,tr2-butene C4H8,isobutene  C4H8,cyclo-    
 (CH3COOH)2      C4H9,n-butyl    C4H9,i-butyl    C4H9,s-butyl    C4H9,t-butyl   
 C4H10,n-butane  C4H10,isobutane *C5             C5H6,1,3cyclo-  C5H8,cyclo-    
 C5H10,1-pentene C5H10,cyclo-    C5H11,pentyl    C5H11,t-pentyl  C5H12,n-pentane
 C5H12,i-pentane CH3C(CH3)2CH3   C6H2            C6H5,phenyl     C6H5O,phenoxy  
 C6H6            C6H5OH,phenol   C6H10,cyclo-    C6H12,1-hexene  C6H12,cyclo-   
 C6H13,n-hexyl   C6H14,n-hexane  C7H7,benzyl     C7H8            C7H8O,cresol-mx
 C7H14,1-heptene C7H15,n-heptyl  C7H16,n-heptane C7H16,2-methylh C8H8,styrene   
 C8H10,ethylbenz C8H16,1-octene  C8H17,n-octyl   C8H18,n-octane  C8H18,isooctane
 C9H19,n-nonyl   C10H8,naphthale C10H21,n-decyl  C12H9,o-bipheny C12H10,biphenyl
 HCCO            HCHO,formaldehy HCOOH           (HCOOH)2        O3             
 C(gr)           H2O(cr)         H2O(L)         

 NOTE. WEIGHT FRACTION OF FUEL IN TOTAL FUELS AND OF OXIDANT IN TOTAL OXIDANTS






 WARNING!!  ASSIGNED pip =   0.00000 IS NOT PERMITTED
 TO BE LESS THAN  Pinj/Pc =  1.03027. POINT OMITTED (ROCKET)





              THEORETICAL ROCKET PERFORMANCE ASSUMING EQUILIBRIUM

            COMPOSITION DURING EXPANSION FROM FINITE AREA COMBUSTOR

 Pin =   111.7 PSIA
 Ac/At =  3.6982      Pinj/Pinf =  1.014805
 CASE =                

             REACTANT                    WT FRACTION      ENERGY      TEMP
                                          (SEE NOTE)     KJ/KG-MOL      K  
 OXIDANT     O2                           0.9643236    124070.459   3639.600
 OXIDANT     H2O                          0.0214058    -77224.139   3639.600
 OXIDANT     CO2                          0.0142705   -200714.464   3639.600
 FUEL        PP                           1.0000000    -78826.000    293.150

 O/F=    2.84335  %FUEL= 26.018989  R,EQ.RATIO= 1.240683  PHI,EQ.RATIO= 1.248017

                 INJECTOR  COMB END  THROAT
 Pinj/P            1.0000   1.0303   1.7517
 P, BAR            7.7000   7.4738   4.3958
 T, K             3642.23  3635.05  3482.25
 RHO, KG/CU M    5.2886-1 5.1448-1 3.2151-1
 H, KJ/KG         2162.73  2140.74  1392.78
 U, KJ/KG          706.77   688.07   25.537
 G, KJ/KG        -44653.8 -44604.8 -43387.8
 S, KJ/(KG)(K)    12.8538  12.8597  12.8597

 M, (1/n)          20.800   20.805   21.176
 (dLV/dLP)t      -1.08768 -1.08765 -1.08366
 (dLV/dLT)p        2.4675   2.4700   2.4690
 Cp, KJ/(KG)(K)   11.9188  11.9523  12.2242
 GAMMAs            1.1319   1.1316   1.1263
 SON VEL,M/SEC     1283.7   1282.2   1240.9
 MACH NUMBER        0.000    0.164    1.000

 PERFORMANCE PARAMETERS

 Ae/At                      3.6982   1.0000
 CSTAR, M/SEC               1901.8   1901.8
 CF                         0.1103   0.6525
 Ivac, M/SEC                7137.5   2342.7
 Isp, M/SEC                  209.7   1240.9


 MOLE FRACTIONS

 *CO              0.30623  0.30613  0.30346
 *CO2             0.08458  0.08478  0.09443
 *H               0.08785  0.08782  0.08112
 HCO              0.00001  0.00001  0.00001
 HO2              0.00009  0.00009  0.00007
 *H2              0.09144  0.09141  0.08967
 H2O              0.21416  0.21444  0.23029
 H2O2             0.00001  0.00001  0.00000
 *O               0.05625  0.05615  0.04990
 *OH              0.10906  0.10882  0.10173
 *O2              0.05033  0.05033  0.04932

  * THERMODYNAMIC PROPERTIES FITTED TO 20000.K

    PRODUCTS WHICH WERE CONSIDERED BUT WHOSE MOLE FRACTIONS
    WERE LESS THAN 5.000000E-06 FOR ALL ASSIGNED CONDITIONS

 *C              *CH             CH2             CH3             CH2OH          
 CH3O            CH4             CH3OH           CH3OOH          COOH           
 *C2             C2H             C2H2,acetylene  C2H2,vinylidene CH2CO,ketene   
 O(CH)2O         HO(CO)2OH       C2H3,vinyl      CH3CO,acetyl    C2H4           
 C2H4O,ethylen-o CH3CHO,ethanal  CH3COOH         OHCH2COOH       C2H5           
 C2H6            C2H5OH          CH3OCH3         CH3O2CH3        C2O            
 *C3             C3H3,1-propynl  C3H3,2-propynl  C3H4,allene     C3H4,propyne   
 C3H4,cyclo-     C3H5,allyl      C3H6,propylene  C3H6,cyclo-     C3H6O,propylox 
 C3H6O,acetone   C3H6O,propanal  C3H7,n-propyl   C3H7,i-propyl   C3H8           
 C3H8O,1propanol C3H8O,2propanol C3O2            *C4             C4H2,butadiyne 
 C4H4,1,3-cyclo- C4H6,butadiene  C4H6,1butyne    C4H6,2butyne    C4H6,cyclo-    
 C4H8,1-butene   C4H8,cis2-buten C4H8,tr2-butene C4H8,isobutene  C4H8,cyclo-    
 (CH3COOH)2      C4H9,n-butyl    C4H9,i-butyl    C4H9,s-butyl    C4H9,t-butyl   
 C4H10,n-butane  C4H10,isobutane *C5             C5H6,1,3cyclo-  C5H8,cyclo-    
 C5H10,1-pentene C5H10,cyclo-    C5H11,pentyl    C5H11,t-pentyl  C5H12,n-pentane
 C5H12,i-pentane CH3C(CH3)2CH3   C6H2            C6H5,phenyl     C6H5O,phenoxy  
 C6H6            C6H5OH,phenol   C6H10,cyclo-    C6H12,1-hexene  C6H12,cyclo-   
 C6H13,n-hexyl   C6H14,n-hexane  C7H7,benzyl     C7H8            C7H8O,cresol-mx
 C7H14,1-heptene C7H15,n-heptyl  C7H16,n-heptane C7H16,2-methylh C8H8,styrene   
 C8H10,ethylbenz C8H16,1-octene  C8H17,n-octyl   C8H18,n-octane  C8H18,isooctane
 C9H19,n-nonyl   C10H8,naphthale C10H21,n-decyl  C12H9,o-bipheny C12H10,biphenyl
 HCCO            HCHO,formaldehy HCOOH           (HCOOH)2        O3             
 C(gr)           H2O(cr)         H2O(L)         

 NOTE. WEIGHT FRACTION OF FUEL IN TOTAL FUELS AND OF OXIDANT IN TOTAL OXIDANTS






 WARNING!!  ASSIGNED pip =   0.00000 IS NOT PERMITTED
 TO BE LESS THAN  Pinj/Pc =  1.03027. POINT OMITTED (ROCKET)





              THEORETICAL ROCKET PERFORMANCE ASSUMING EQUILIBRIUM

            COMPOSITION DURING EXPANSION FROM FINITE AREA COMBUSTOR

 Pin =   111.7 PSIA
 Ac/At =  3.6982      Pinj/Pinf =  1.014805
 CASE =                

             REACTANT                    WT FRACTION      ENERGY      TEMP
                                          (SEE NOTE)     KJ/KG-MOL      K  
 OXIDANT     O2                           0.9643236    124070.459   3639.600
 OXIDANT     H2O                          0.0214058    -77224.139   3639.600
 OXIDANT     CO2                          0.0142705   -200714.464   3639.600
 FUEL        PP                           1.0000000    -78826.000    293.150

 O/F=    2.84335  %FUEL= 26.018989  R,EQ.RATIO= 1.240683  PHI,EQ.RATIO= 1.248017

                 INJECTOR  COMB END  THROAT
 Pinj/P            1.0000   1.0303   1.7517
 P, BAR            7.7000   7.4738   4.3958
 T, K             3642.23  3635.05  3482.25
 RHO, KG/CU M    5.2886-1 5.1448-1 3.2151-1
 H, KJ/KG         2162.73  2140.74  1392.78
 U, KJ/KG          706.77   688.07   25.537
 G, KJ/KG        -44653.8 -44604.8 -43387.8
 S, KJ/(KG)(K)    12.8538  12.8597  12.8597

 M, (1/n)          20.800   20.805   21.176
 (dLV/dLP)t      -1.08768 -1.08765 -1.08366
 (dLV/dLT)p        2.4675   2.4700   2.4690
 Cp, KJ/(KG)(K)   11.9188  11.9523  12.2242
 GAMMAs            1.1319   1.1316   1.1263
 SON VEL,M/SEC     1283.7   1282.2   1240.9
 MACH NUMBER        0.000    0.164    1.000

 PERFORMANCE PARAMETERS

 Ae/At                      3.6982   1.0000
 CSTAR, M/SEC               1901.8   1901.8
 CF                         0.1103   0.6525
 Ivac, M/SEC                7137.5   2342.7
 Isp, M/SEC                  209.7   1240.9


 MOLE FRACTIONS

 *CO              0.30623  0.30613  0.30346
 *CO2             0.08458  0.08478  0.09443
 *H               0.08785  0.08782  0.08112
 HCO              0.00001  0.00001  0.00001
 HO2              0.00009  0.00009  0.00007
 *H2              0.09144  0.09141  0.08967
 H2O              0.21416  0.21444  0.23029
 H2O2             0.00001  0.00001  0.00000
 *O               0.05625  0.05615  0.04990
 *OH              0.10906  0.10882  0.10173
 *O2              0.05033  0.05033  0.04932

  * THERMODYNAMIC PROPERTIES FITTED TO 20000.K

    PRODUCTS WHICH WERE CONSIDERED BUT WHOSE MOLE FRACTIONS
    WERE LESS THAN 5.000000E-06 FOR ALL ASSIGNED CONDITIONS

 *C              *CH             CH2             CH3             CH2OH          
 CH3O            CH4             CH3OH           CH3OOH          COOH           
 *C2             C2H             C2H2,acetylene  C2H2,vinylidene CH2CO,ketene   
 O(CH)2O         HO(CO)2OH       C2H3,vinyl      CH3CO,acetyl    C2H4           
 C2H4O,ethylen-o CH3CHO,ethanal  CH3COOH         OHCH2COOH       C2H5           
 C2H6            C2H5OH          CH3OCH3         CH3O2CH3        C2O            
 *C3             C3H3,1-propynl  C3H3,2-propynl  C3H4,allene     C3H4,propyne   
 C3H4,cyclo-     C3H5,allyl      C3H6,propylene  C3H6,cyclo-     C3H6O,propylox 
 C3H6O,acetone   C3H6O,propanal  C3H7,n-propyl   C3H7,i-propyl   C3H8           
 C3H8O,1propanol C3H8O,2propanol C3O2            *C4             C4H2,butadiyne 
 C4H4,1,3-cyclo- C4H6,butadiene  C4H6,1butyne    C4H6,2butyne    C4H6,cyclo-    
 C4H8,1-butene   C4H8,cis2-buten C4H8,tr2-butene C4H8,isobutene  C4H8,cyclo-    
 (CH3COOH)2      C4H9,n-butyl    C4H9,i-butyl    C4H9,s-butyl    C4H9,t-butyl   
 C4H10,n-butane  C4H10,isobutane *C5             C5H6,1,3cyclo-  C5H8,cyclo-    
 C5H10,1-pentene C5H10,cyclo-    C5H11,pentyl    C5H11,t-pentyl  C5H12,n-pentane
 C5H12,i-pentane CH3C(CH3)2CH3   C6H2            C6H5,phenyl     C6H5O,phenoxy  
 C6H6            C6H5OH,phenol   C6H10,cyclo-    C6H12,1-hexene  C6H12,cyclo-   
 C6H13,n-hexyl   C6H14,n-hexane  C7H7,benzyl     C7H8            C7H8O,cresol-mx
 C7H14,1-heptene C7H15,n-heptyl  C7H16,n-heptane C7H16,2-methylh C8H8,styrene   
 C8H10,ethylbenz C8H16,1-octene  C8H17,n-octyl   C8H18,n-octane  C8H18,isooctane
 C9H19,n-nonyl   C10H8,naphthale C10H21,n-decyl  C12H9,o-bipheny C12H10,biphenyl
 HCCO            HCHO,formaldehy HCOOH           (HCOOH)2        O3             
 C(gr)           H2O(cr)         H2O(L)         

 NOTE. WEIGHT FRACTION OF FUEL IN TOTAL FUELS AND OF OXIDANT IN TOTAL OXIDANTS






 WARNING!!  ASSIGNED pip =   0.00000 IS NOT PERMITTED
 TO BE LESS THAN  Pinj/Pc =  1.03027. POINT OMITTED (ROCKET)





              THEORETICAL ROCKET PERFORMANCE ASSUMING EQUILIBRIUM

            COMPOSITION DURING EXPANSION FROM FINITE AREA COMBUSTOR

 Pin =   111.7 PSIA
 Ac/At =  3.6982      Pinj/Pinf =  1.014805
 CASE =                

             REACTANT                    WT FRACTION      ENERGY      TEMP
                                          (SEE NOTE)     KJ/KG-MOL      K  
 OXIDANT     O2                           0.9643236    124070.459   3639.600
 OXIDANT     H2O                          0.0214058    -77224.139   3639.600
 OXIDANT     CO2                          0.0142705   -200714.464   3639.600
 FUEL        PP                           1.0000000    -78826.000    293.150

 O/F=    2.84335  %FUEL= 26.018989  R,EQ.RATIO= 1.240683  PHI,EQ.RATIO= 1.248017

                 INJECTOR  COMB END  THROAT
 Pinj/P            1.0000   1.0303   1.7517
 P, BAR            7.7000   7.4738   4.3958
 T, K             3642.23  3635.05  3482.25
 RHO, KG/CU M    5.2886-1 5.1448-1 3.2151-1
 H, KJ/KG         2162.73  2140.74  1392.78
 U, KJ/KG          706.77   688.07   25.537
 G, KJ/KG        -44653.8 -44604.8 -43387.8
 S, KJ/(KG)(K)    12.8538  12.8597  12.8597

 M, (1/n)          20.800   20.805   21.176
 (dLV/dLP)t      -1.08768 -1.08765 -1.08366
 (dLV/dLT)p        2.4675   2.4700   2.4690
 Cp, KJ/(KG)(K)   11.9188  11.9523  12.2242
 GAMMAs            1.1319   1.1316   1.1263
 SON VEL,M/SEC     1283.7   1282.2   1240.9
 MACH NUMBER        0.000    0.164    1.000

 PERFORMANCE PARAMETERS

 Ae/At                      3.6982   1.0000
 CSTAR, M/SEC               1901.8   1901.8
 CF                         0.1103   0.6525
 Ivac, M/SEC                7137.5   2342.7
 Isp, M/SEC                  209.7   1240.9


 MOLE FRACTIONS

 *CO              0.30623  0.30613  0.30346
 *CO2             0.08458  0.08478  0.09443
 *H               0.08785  0.08782  0.08112
 HCO              0.00001  0.00001  0.00001
 HO2              0.00009  0.00009  0.00007
 *H2              0.09144  0.09141  0.08967
 H2O              0.21416  0.21444  0.23029
 H2O2             0.00001  0.00001  0.00000
 *O               0.05625  0.05615  0.04990
 *OH              0.10906  0.10882  0.10173
 *O2              0.05033  0.05033  0.04932

  * THERMODYNAMIC PROPERTIES FITTED TO 20000.K

    PRODUCTS WHICH WERE CONSIDERED BUT WHOSE MOLE FRACTIONS
    WERE LESS THAN 5.000000E-06 FOR ALL ASSIGNED CONDITIONS

 *C              *CH             CH2             CH3             CH2OH          
 CH3O            CH4             CH3OH           CH3OOH          COOH           
 *C2             C2H             C2H2,acetylene  C2H2,vinylidene CH2CO,ketene   
 O(CH)2O         HO(CO)2OH       C2H3,vinyl      CH3CO,acetyl    C2H4           
 C2H4O,ethylen-o CH3CHO,ethanal  CH3COOH         OHCH2COOH       C2H5           
 C2H6            C2H5OH          CH3OCH3         CH3O2CH3        C2O            
 *C3             C3H3,1-propynl  C3H3,2-propynl  C3H4,allene     C3H4,propyne   
 C3H4,cyclo-     C3H5,allyl      C3H6,propylene  C3H6,cyclo-     C3H6O,propylox 
 C3H6O,acetone   C3H6O,propanal  C3H7,n-propyl   C3H7,i-propyl   C3H8           
 C3H8O,1propanol C3H8O,2propanol C3O2            *C4             C4H2,butadiyne 
 C4H4,1,3-cyclo- C4H6,butadiene  C4H6,1butyne    C4H6,2butyne    C4H6,cyclo-    
 C4H8,1-butene   C4H8,cis2-buten C4H8,tr2-butene C4H8,isobutene  C4H8,cyclo-    
 (CH3COOH)2      C4H9,n-butyl    C4H9,i-butyl    C4H9,s-butyl    C4H9,t-butyl   
 C4H10,n-butane  C4H10,isobutane *C5             C5H6,1,3cyclo-  C5H8,cyclo-    
 C5H10,1-pentene C5H10,cyclo-    C5H11,pentyl    C5H11,t-pentyl  C5H12,n-pentane
 C5H12,i-pentane CH3C(CH3)2CH3   C6H2            C6H5,phenyl     C6H5O,phenoxy  
 C6H6            C6H5OH,phenol   C6H10,cyclo-    C6H12,1-hexene  C6H12,cyclo-   
 C6H13,n-hexyl   C6H14,n-hexane  C7H7,benzyl     C7H8            C7H8O,cresol-mx
 C7H14,1-heptene C7H15,n-heptyl  C7H16,n-heptane C7H16,2-methylh C8H8,styrene   
 C8H10,ethylbenz C8H16,1-octene  C8H17,n-octyl   C8H18,n-octane  C8H18,isooctane
 C9H19,n-nonyl   C10H8,naphthale C10H21,n-decyl  C12H9,o-bipheny C12H10,biphenyl
 HCCO            HCHO,formaldehy HCOOH           (HCOOH)2        O3             
 C(gr)           H2O(cr)         H2O(L)         

 NOTE. WEIGHT FRACTION OF FUEL IN TOTAL FUELS AND OF OXIDANT IN TOTAL OXIDANTS






 WARNING!!  ASSIGNED pip =   0.00000 IS NOT PERMITTED
 TO BE LESS THAN  Pinj/Pc =  1.03027. POINT OMITTED (ROCKET)





              THEORETICAL ROCKET PERFORMANCE ASSUMING EQUILIBRIUM

            COMPOSITION DURING EXPANSION FROM FINITE AREA COMBUSTOR

 Pin =   111.7 PSIA
 Ac/At =  3.6982      Pinj/Pinf =  1.014805
 CASE =                

             REACTANT                    WT FRACTION      ENERGY      TEMP
                                          (SEE NOTE)     KJ/KG-MOL      K  
 OXIDANT     O2                           0.9643236    124070.459   3639.600
 OXIDANT     H2O                          0.0214058    -77224.139   3639.600
 OXIDANT     CO2                          0.0142705   -200714.464   3639.600
 FUEL        PP                           1.0000000    -78826.000    293.150

 O/F=    2.84335  %FUEL= 26.018989  R,EQ.RATIO= 1.240683  PHI,EQ.RATIO= 1.248017

                 INJECTOR  COMB END  THROAT
 Pinj/P            1.0000   1.0303   1.7517
 P, BAR            7.7000   7.4738   4.3958
 T, K             3642.23  3635.05  3482.25
 RHO, KG/CU M    5.2886-1 5.1448-1 3.2151-1
 H, KJ/KG         2162.73  2140.74  1392.78
 U, KJ/KG          706.77   688.07   25.537
 G, KJ/KG        -44653.8 -44604.8 -43387.8
 S, KJ/(KG)(K)    12.8538  12.8597  12.8597

 M, (1/n)          20.800   20.805   21.176
 (dLV/dLP)t      -1.08768 -1.08765 -1.08366
 (dLV/dLT)p        2.4675   2.4700   2.4690
 Cp, KJ/(KG)(K)   11.9188  11.9523  12.2242
 GAMMAs            1.1319   1.1316   1.1263
 SON VEL,M/SEC     1283.7   1282.2   1240.9
 MACH NUMBER        0.000    0.164    1.000

 PERFORMANCE PARAMETERS

 Ae/At                      3.6982   1.0000
 CSTAR, M/SEC               1901.8   1901.8
 CF                         0.1103   0.6525
 Ivac, M/SEC                7137.5   2342.7
 Isp, M/SEC                  209.7   1240.9


 MOLE FRACTIONS

 *CO              0.30623  0.30613  0.30346
 *CO2             0.08458  0.08478  0.09443
 *H               0.08785  0.08782  0.08112
 HCO              0.00001  0.00001  0.00001
 HO2              0.00009  0.00009  0.00007
 *H2              0.09144  0.09141  0.08967
 H2O              0.21416  0.21444  0.23029
 H2O2             0.00001  0.00001  0.00000
 *O               0.05625  0.05615  0.04990
 *OH              0.10906  0.10882  0.10173
 *O2              0.05033  0.05033  0.04932

  * THERMODYNAMIC PROPERTIES FITTED TO 20000.K

    PRODUCTS WHICH WERE CONSIDERED BUT WHOSE MOLE FRACTIONS
    WERE LESS THAN 5.000000E-06 FOR ALL ASSIGNED CONDITIONS

 *C              *CH             CH2             CH3             CH2OH          
 CH3O            CH4             CH3OH           CH3OOH          COOH           
 *C2             C2H             C2H2,acetylene  C2H2,vinylidene CH2CO,ketene   
 O(CH)2O         HO(CO)2OH       C2H3,vinyl      CH3CO,acetyl    C2H4           
 C2H4O,ethylen-o CH3CHO,ethanal  CH3COOH         OHCH2COOH       C2H5           
 C2H6            C2H5OH          CH3OCH3         CH3O2CH3        C2O            
 *C3             C3H3,1-propynl  C3H3,2-propynl  C3H4,allene     C3H4,propyne   
 C3H4,cyclo-     C3H5,allyl      C3H6,propylene  C3H6,cyclo-     C3H6O,propylox 
 C3H6O,acetone   C3H6O,propanal  C3H7,n-propyl   C3H7,i-propyl   C3H8           
 C3H8O,1propanol C3H8O,2propanol C3O2            *C4             C4H2,butadiyne 
 C4H4,1,3-cyclo- C4H6,butadiene  C4H6,1butyne    C4H6,2butyne    C4H6,cyclo-    
 C4H8,1-butene   C4H8,cis2-buten C4H8,tr2-butene C4H8,isobutene  C4H8,cyclo-    
 (CH3COOH)2      C4H9,n-butyl    C4H9,i-butyl    C4H9,s-butyl    C4H9,t-butyl   
 C4H10,n-butane  C4H10,isobutane *C5             C5H6,1,3cyclo-  C5H8,cyclo-    
 C5H10,1-pentene C5H10,cyclo-    C5H11,pentyl    C5H11,t-pentyl  C5H12,n-pentane
 C5H12,i-pentane CH3C(CH3)2CH3   C6H2            C6H5,phenyl     C6H5O,phenoxy  
 C6H6            C6H5OH,phenol   C6H10,cyclo-    C6H12,1-hexene  C6H12,cyclo-   
 C6H13,n-hexyl   C6H14,n-hexane  C7H7,benzyl     C7H8            C7H8O,cresol-mx
 C7H14,1-heptene C7H15,n-heptyl  C7H16,n-heptane C7H16,2-methylh C8H8,styrene   
 C8H10,ethylbenz C8H16,1-octene  C8H17,n-octyl   C8H18,n-octane  C8H18,isooctane
 C9H19,n-nonyl   C10H8,naphthale C10H21,n-decyl  C12H9,o-bipheny C12H10,biphenyl
 HCCO            HCHO,formaldehy HCOOH           (HCOOH)2        O3             
 C(gr)           H2O(cr)         H2O(L)         

 NOTE. WEIGHT FRACTION OF FUEL IN TOTAL FUELS AND OF OXIDANT IN TOTAL OXIDANTS






 WARNING!!  ASSIGNED pip =   0.00000 IS NOT PERMITTED
 TO BE LESS THAN  Pinj/Pc =  1.03027. POINT OMITTED (ROCKET)





              THEORETICAL ROCKET PERFORMANCE ASSUMING EQUILIBRIUM

            COMPOSITION DURING EXPANSION FROM FINITE AREA COMBUSTOR

 Pin =   111.7 PSIA
 Ac/At =  3.6982      Pinj/Pinf =  1.014805
 CASE =                

             REACTANT                    WT FRACTION      ENERGY      TEMP
                                          (SEE NOTE)     KJ/KG-MOL      K  
 OXIDANT     O2                           0.9643236    124070.459   3639.600
 OXIDANT     H2O                          0.0214058    -77224.139   3639.600
 OXIDANT     CO2                          0.0142705   -200714.464   3639.600
 FUEL        PP                           1.0000000    -78826.000    293.150

 O/F=    2.84335  %FUEL= 26.018989  R,EQ.RATIO= 1.240683  PHI,EQ.RATIO= 1.248017

                 INJECTOR  COMB END  THROAT
 Pinj/P            1.0000   1.0303   1.7517
 P, BAR            7.7000   7.4738   4.3958
 T, K             3642.23  3635.05  3482.25
 RHO, KG/CU M    5.2886-1 5.1448-1 3.2151-1
 H, KJ/KG         2162.73  2140.74  1392.78
 U, KJ/KG          706.77   688.07   25.537
 G, KJ/KG        -44653.8 -44604.8 -43387.8
 S, KJ/(KG)(K)    12.8538  12.8597  12.8597

 M, (1/n)          20.800   20.805   21.176
 (dLV/dLP)t      -1.08768 -1.08765 -1.08366
 (dLV/dLT)p        2.4675   2.4700   2.4690
 Cp, KJ/(KG)(K)   11.9188  11.9523  12.2242
 GAMMAs            1.1319   1.1316   1.1263
 SON VEL,M/SEC     1283.7   1282.2   1240.9
 MACH NUMBER        0.000    0.164    1.000

 PERFORMANCE PARAMETERS

 Ae/At                      3.6982   1.0000
 CSTAR, M/SEC               1901.8   1901.8
 CF                         0.1103   0.6525
 Ivac, M/SEC                7137.5   2342.7
 Isp, M/SEC                  209.7   1240.9


 MOLE FRACTIONS

 *CO              0.30623  0.30613  0.30346
 *CO2             0.08458  0.08478  0.09443
 *H               0.08785  0.08782  0.08112
 HCO              0.00001  0.00001  0.00001
 HO2              0.00009  0.00009  0.00007
 *H2              0.09144  0.09141  0.08967
 H2O              0.21416  0.21444  0.23029
 H2O2             0.00001  0.00001  0.00000
 *O               0.05625  0.05615  0.04990
 *OH              0.10906  0.10882  0.10173
 *O2              0.05033  0.05033  0.04932

  * THERMODYNAMIC PROPERTIES FITTED TO 20000.K

    PRODUCTS WHICH WERE CONSIDERED BUT WHOSE MOLE FRACTIONS
    WERE LESS THAN 5.000000E-06 FOR ALL ASSIGNED CONDITIONS

 *C              *CH             CH2             CH3             CH2OH          
 CH3O            CH4             CH3OH           CH3OOH          COOH           
 *C2             C2H             C2H2,acetylene  C2H2,vinylidene CH2CO,ketene   
 O(CH)2O         HO(CO)2OH       C2H3,vinyl      CH3CO,acetyl    C2H4           
 C2H4O,ethylen-o CH3CHO,ethanal  CH3COOH         OHCH2COOH       C2H5           
 C2H6            C2H5OH          CH3OCH3         CH3O2CH3        C2O            
 *C3             C3H3,1-propynl  C3H3,2-propynl  C3H4,allene     C3H4,propyne   
 C3H4,cyclo-     C3H5,allyl      C3H6,propylene  C3H6,cyclo-     C3H6O,propylox 
 C3H6O,acetone   C3H6O,propanal  C3H7,n-propyl   C3H7,i-propyl   C3H8           
 C3H8O,1propanol C3H8O,2propanol C3O2            *C4             C4H2,butadiyne 
 C4H4,1,3-cyclo- C4H6,butadiene  C4H6,1butyne    C4H6,2butyne    C4H6,cyclo-    
 C4H8,1-butene   C4H8,cis2-buten C4H8,tr2-butene C4H8,isobutene  C4H8,cyclo-    
 (CH3COOH)2      C4H9,n-butyl    C4H9,i-butyl    C4H9,s-butyl    C4H9,t-butyl   
 C4H10,n-butane  C4H10,isobutane *C5             C5H6,1,3cyclo-  C5H8,cyclo-    
 C5H10,1-pentene C5H10,cyclo-    C5H11,pentyl    C5H11,t-pentyl  C5H12,n-pentane
 C5H12,i-pentane CH3C(CH3)2CH3   C6H2            C6H5,phenyl     C6H5O,phenoxy  
 C6H6            C6H5OH,phenol   C6H10,cyclo-    C6H12,1-hexene  C6H12,cyclo-   
 C6H13,n-hexyl   C6H14,n-hexane  C7H7,benzyl     C7H8            C7H8O,cresol-mx
 C7H14,1-heptene C7H15,n-heptyl  C7H16,n-heptane C7H16,2-methylh C8H8,styrene   
 C8H10,ethylbenz C8H16,1-octene  C8H17,n-octyl   C8H18,n-octane  C8H18,isooctane
 C9H19,n-nonyl   C10H8,naphthale C10H21,n-decyl  C12H9,o-bipheny C12H10,biphenyl
 HCCO            HCHO,formaldehy HCOOH           (HCOOH)2        O3             
 C(gr)           H2O(cr)         H2O(L)         

 NOTE. WEIGHT FRACTION OF FUEL IN TOTAL FUELS AND OF OXIDANT IN TOTAL OXIDANTS






 WARNING!!  ASSIGNED pip =   0.00000 IS NOT PERMITTED
 TO BE LESS THAN  Pinj/Pc =  1.03027. POINT OMITTED (ROCKET)





              THEORETICAL ROCKET PERFORMANCE ASSUMING EQUILIBRIUM

            COMPOSITION DURING EXPANSION FROM FINITE AREA COMBUSTOR

 Pin =   111.7 PSIA
 Ac/At =  3.6982      Pinj/Pinf =  1.014805
 CASE =                

             REACTANT                    WT FRACTION      ENERGY      TEMP
                                          (SEE NOTE)     KJ/KG-MOL      K  
 OXIDANT     O2                           0.9643236    124070.459   3639.600
 OXIDANT     H2O                          0.0214058    -77224.139   3639.600
 OXIDANT     CO2                          0.0142705   -200714.464   3639.600
 FUEL        PP                           1.0000000    -78826.000    293.150

 O/F=    2.84335  %FUEL= 26.018989  R,EQ.RATIO= 1.240683  PHI,EQ.RATIO= 1.248017

                 INJECTOR  COMB END  THROAT
 Pinj/P            1.0000   1.0303   1.7517
 P, BAR            7.7000   7.4738   4.3958
 T, K             3642.23  3635.05  3482.25
 RHO, KG/CU M    5.2886-1 5.1448-1 3.2151-1
 H, KJ/KG         2162.73  2140.74  1392.78
 U, KJ/KG          706.77   688.07   25.537
 G, KJ/KG        -44653.8 -44604.8 -43387.8
 S, KJ/(KG)(K)    12.8538  12.8597  12.8597

 M, (1/n)          20.800   20.805   21.176
 (dLV/dLP)t      -1.08768 -1.08765 -1.08366
 (dLV/dLT)p        2.4675   2.4700   2.4690
 Cp, KJ/(KG)(K)   11.9188  11.9523  12.2242
 GAMMAs            1.1319   1.1316   1.1263
 SON VEL,M/SEC     1283.7   1282.2   1240.9
 MACH NUMBER        0.000    0.164    1.000

 PERFORMANCE PARAMETERS

 Ae/At                      3.6982   1.0000
 CSTAR, M/SEC               1901.8   1901.8
 CF                         0.1103   0.6525
 Ivac, M/SEC                7137.5   2342.7
 Isp, M/SEC                  209.7   1240.9


 MOLE FRACTIONS

 *CO              0.30623  0.30613  0.30346
 *CO2             0.08458  0.08478  0.09443
 *H               0.08785  0.08782  0.08112
 HCO              0.00001  0.00001  0.00001
 HO2              0.00009  0.00009  0.00007
 *H2              0.09144  0.09141  0.08967
 H2O              0.21416  0.21444  0.23029
 H2O2             0.00001  0.00001  0.00000
 *O               0.05625  0.05615  0.04990
 *OH              0.10906  0.10882  0.10173
 *O2              0.05033  0.05033  0.04932

  * THERMODYNAMIC PROPERTIES FITTED TO 20000.K

    PRODUCTS WHICH WERE CONSIDERED BUT WHOSE MOLE FRACTIONS
    WERE LESS THAN 5.000000E-06 FOR ALL ASSIGNED CONDITIONS

 *C              *CH             CH2             CH3             CH2OH          
 CH3O            CH4             CH3OH           CH3OOH          COOH           
 *C2             C2H             C2H2,acetylene  C2H2,vinylidene CH2CO,ketene   
 O(CH)2O         HO(CO)2OH       C2H3,vinyl      CH3CO,acetyl    C2H4           
 C2H4O,ethylen-o CH3CHO,ethanal  CH3COOH         OHCH2COOH       C2H5           
 C2H6            C2H5OH          CH3OCH3         CH3O2CH3        C2O            
 *C3             C3H3,1-propynl  C3H3,2-propynl  C3H4,allene     C3H4,propyne   
 C3H4,cyclo-     C3H5,allyl      C3H6,propylene  C3H6,cyclo-     C3H6O,propylox 
 C3H6O,acetone   C3H6O,propanal  C3H7,n-propyl   C3H7,i-propyl   C3H8           
 C3H8O,1propanol C3H8O,2propanol C3O2            *C4             C4H2,butadiyne 
 C4H4,1,3-cyclo- C4H6,butadiene  C4H6,1butyne    C4H6,2butyne    C4H6,cyclo-    
 C4H8,1-butene   C4H8,cis2-buten C4H8,tr2-butene C4H8,isobutene  C4H8,cyclo-    
 (CH3COOH)2      C4H9,n-butyl    C4H9,i-butyl    C4H9,s-butyl    C4H9,t-butyl   
 C4H10,n-butane  C4H10,isobutane *C5             C5H6,1,3cyclo-  C5H8,cyclo-    
 C5H10,1-pentene C5H10,cyclo-    C5H11,pentyl    C5H11,t-pentyl  C5H12,n-pentane
 C5H12,i-pentane CH3C(CH3)2CH3   C6H2            C6H5,phenyl     C6H5O,phenoxy  
 C6H6            C6H5OH,phenol   C6H10,cyclo-    C6H12,1-hexene  C6H12,cyclo-   
 C6H13,n-hexyl   C6H14,n-hexane  C7H7,benzyl     C7H8            C7H8O,cresol-mx
 C7H14,1-heptene C7H15,n-heptyl  C7H16,n-heptane C7H16,2-methylh C8H8,styrene   
 C8H10,ethylbenz C8H16,1-octene  C8H17,n-octyl   C8H18,n-octane  C8H18,isooctane
 C9H19,n-nonyl   C10H8,naphthale C10H21,n-decyl  C12H9,o-bipheny C12H10,biphenyl
 HCCO            HCHO,formaldehy HCOOH           (HCOOH)2        O3             
 C(gr)           H2O(cr)         H2O(L)         

 NOTE. WEIGHT FRACTION OF FUEL IN TOTAL FUELS AND OF OXIDANT IN TOTAL OXIDANTS






 WARNING!!  ASSIGNED pip =   0.00000 IS NOT PERMITTED
 TO BE LESS THAN  Pinj/Pc =  1.03027. POINT OMITTED (ROCKET)





              THEORETICAL ROCKET PERFORMANCE ASSUMING EQUILIBRIUM

            COMPOSITION DURING EXPANSION FROM FINITE AREA COMBUSTOR

 Pin =   111.7 PSIA
 Ac/At =  3.6982      Pinj/Pinf =  1.014805
 CASE =                

             REACTANT                    WT FRACTION      ENERGY      TEMP
                                          (SEE NOTE)     KJ/KG-MOL      K  
 OXIDANT     O2                           0.9643236    124070.459   3639.600
 OXIDANT     H2O                          0.0214058    -77224.139   3639.600
 OXIDANT     CO2                          0.0142705   -200714.464   3639.600
 FUEL        PP                           1.0000000    -78826.000    293.150

 O/F=    2.84335  %FUEL= 26.018989  R,EQ.RATIO= 1.240683  PHI,EQ.RATIO= 1.248017

                 INJECTOR  COMB END  THROAT
 Pinj/P            1.0000   1.0303   1.7517
 P, BAR            7.7000   7.4738   4.3958
 T, K             3642.23  3635.05  3482.25
 RHO, KG/CU M    5.2886-1 5.1448-1 3.2151-1
 H, KJ/KG         2162.73  2140.74  1392.78
 U, KJ/KG          706.77   688.07   25.537
 G, KJ/KG        -44653.8 -44604.8 -43387.8
 S, KJ/(KG)(K)    12.8538  12.8597  12.8597

 M, (1/n)          20.800   20.805   21.176
 (dLV/dLP)t      -1.08768 -1.08765 -1.08366
 (dLV/dLT)p        2.4675   2.4700   2.4690
 Cp, KJ/(KG)(K)   11.9188  11.9523  12.2242
 GAMMAs            1.1319   1.1316   1.1263
 SON VEL,M/SEC     1283.7   1282.2   1240.9
 MACH NUMBER        0.000    0.164    1.000

 PERFORMANCE PARAMETERS

 Ae/At                      3.6982   1.0000
 CSTAR, M/SEC               1901.8   1901.8
 CF                         0.1103   0.6525
 Ivac, M/SEC                7137.5   2342.7
 Isp, M/SEC                  209.7   1240.9


 MOLE FRACTIONS

 *CO              0.30623  0.30613  0.30346
 *CO2             0.08458  0.08478  0.09443
 *H               0.08785  0.08782  0.08112
 HCO              0.00001  0.00001  0.00001
 HO2              0.00009  0.00009  0.00007
 *H2              0.09144  0.09141  0.08967
 H2O              0.21416  0.21444  0.23029
 H2O2             0.00001  0.00001  0.00000
 *O               0.05625  0.05615  0.04990
 *OH              0.10906  0.10882  0.10173
 *O2              0.05033  0.05033  0.04932

  * THERMODYNAMIC PROPERTIES FITTED TO 20000.K

    PRODUCTS WHICH WERE CONSIDERED BUT WHOSE MOLE FRACTIONS
    WERE LESS THAN 5.000000E-06 FOR ALL ASSIGNED CONDITIONS

 *C              *CH             CH2             CH3             CH2OH          
 CH3O            CH4             CH3OH           CH3OOH          COOH           
 *C2             C2H             C2H2,acetylene  C2H2,vinylidene CH2CO,ketene   
 O(CH)2O         HO(CO)2OH       C2H3,vinyl      CH3CO,acetyl    C2H4           
 C2H4O,ethylen-o CH3CHO,ethanal  CH3COOH         OHCH2COOH       C2H5           
 C2H6            C2H5OH          CH3OCH3         CH3O2CH3        C2O            
 *C3             C3H3,1-propynl  C3H3,2-propynl  C3H4,allene     C3H4,propyne   
 C3H4,cyclo-     C3H5,allyl      C3H6,propylene  C3H6,cyclo-     C3H6O,propylox 
 C3H6O,acetone   C3H6O,propanal  C3H7,n-propyl   C3H7,i-propyl   C3H8           
 C3H8O,1propanol C3H8O,2propanol C3O2            *C4             C4H2,butadiyne 
 C4H4,1,3-cyclo- C4H6,butadiene  C4H6,1butyne    C4H6,2butyne    C4H6,cyclo-    
 C4H8,1-butene   C4H8,cis2-buten C4H8,tr2-butene C4H8,isobutene  C4H8,cyclo-    
 (CH3COOH)2      C4H9,n-butyl    C4H9,i-butyl    C4H9,s-butyl    C4H9,t-butyl   
 C4H10,n-butane  C4H10,isobutane *C5             C5H6,1,3cyclo-  C5H8,cyclo-    
 C5H10,1-pentene C5H10,cyclo-    C5H11,pentyl    C5H11,t-pentyl  C5H12,n-pentane
 C5H12,i-pentane CH3C(CH3)2CH3   C6H2            C6H5,phenyl     C6H5O,phenoxy  
 C6H6            C6H5OH,phenol   C6H10,cyclo-    C6H12,1-hexene  C6H12,cyclo-   
 C6H13,n-hexyl   C6H14,n-hexane  C7H7,benzyl     C7H8            C7H8O,cresol-mx
 C7H14,1-heptene C7H15,n-heptyl  C7H16,n-heptane C7H16,2-methylh C8H8,styrene   
 C8H10,ethylbenz C8H16,1-octene  C8H17,n-octyl   C8H18,n-octane  C8H18,isooctane
 C9H19,n-nonyl   C10H8,naphthale C10H21,n-decyl  C12H9,o-bipheny C12H10,biphenyl
 HCCO            HCHO,formaldehy HCOOH           (HCOOH)2        O3             
 C(gr)           H2O(cr)         H2O(L)         

 NOTE. WEIGHT FRACTION OF FUEL IN TOTAL FUELS AND OF OXIDANT IN TOTAL OXIDANTS






 WARNING!!  ASSIGNED pip =   0.00000 IS NOT PERMITTED
 TO BE LESS THAN  Pinj/Pc =  1.03027. POINT OMITTED (ROCKET)





              THEORETICAL ROCKET PERFORMANCE ASSUMING EQUILIBRIUM

            COMPOSITION DURING EXPANSION FROM FINITE AREA COMBUSTOR

 Pin =   111.7 PSIA
 Ac/At =  3.6982      Pinj/Pinf =  1.014805
 CASE =                

             REACTANT                    WT FRACTION      ENERGY      TEMP
                                          (SEE NOTE)     KJ/KG-MOL      K  
 OXIDANT     O2                           0.9643236    124070.459   3639.600
 OXIDANT     H2O                          0.0214058    -77224.139   3639.600
 OXIDANT     CO2                          0.0142705   -200714.464   3639.600
 FUEL        PP                           1.0000000    -78826.000    293.150

 O/F=    2.84335  %FUEL= 26.018989  R,EQ.RATIO= 1.240683  PHI,EQ.RATIO= 1.248017

                 INJECTOR  COMB END  THROAT
 Pinj/P            1.0000   1.0303   1.7517
 P, BAR            7.7000   7.4738   4.3958
 T, K             3642.23  3635.05  3482.25
 RHO, KG/CU M    5.2886-1 5.1448-1 3.2151-1
 H, KJ/KG         2162.73  2140.74  1392.78
 U, KJ/KG          706.77   688.07   25.537
 G, KJ/KG        -44653.8 -44604.8 -43387.8
 S, KJ/(KG)(K)    12.8538  12.8597  12.8597

 M, (1/n)          20.800   20.805   21.176
 (dLV/dLP)t      -1.08768 -1.08765 -1.08366
 (dLV/dLT)p        2.4675   2.4700   2.4690
 Cp, KJ/(KG)(K)   11.9188  11.9523  12.2242
 GAMMAs            1.1319   1.1316   1.1263
 SON VEL,M/SEC     1283.7   1282.2   1240.9
 MACH NUMBER        0.000    0.164    1.000

 PERFORMANCE PARAMETERS

 Ae/At                      3.6982   1.0000
 CSTAR, M/SEC               1901.8   1901.8
 CF                         0.1103   0.6525
 Ivac, M/SEC                7137.5   2342.7
 Isp, M/SEC                  209.7   1240.9


 MOLE FRACTIONS

 *CO              0.30623  0.30613  0.30346
 *CO2             0.08458  0.08478  0.09443
 *H               0.08785  0.08782  0.08112
 HCO              0.00001  0.00001  0.00001
 HO2              0.00009  0.00009  0.00007
 *H2              0.09144  0.09141  0.08967
 H2O              0.21416  0.21444  0.23029
 H2O2             0.00001  0.00001  0.00000
 *O               0.05625  0.05615  0.04990
 *OH              0.10906  0.10882  0.10173
 *O2              0.05033  0.05033  0.04932

  * THERMODYNAMIC PROPERTIES FITTED TO 20000.K

    PRODUCTS WHICH WERE CONSIDERED BUT WHOSE MOLE FRACTIONS
    WERE LESS THAN 5.000000E-06 FOR ALL ASSIGNED CONDITIONS

 *C              *CH             CH2             CH3             CH2OH          
 CH3O            CH4             CH3OH           CH3OOH          COOH           
 *C2             C2H             C2H2,acetylene  C2H2,vinylidene CH2CO,ketene   
 O(CH)2O         HO(CO)2OH       C2H3,vinyl      CH3CO,acetyl    C2H4           
 C2H4O,ethylen-o CH3CHO,ethanal  CH3COOH         OHCH2COOH       C2H5           
 C2H6            C2H5OH          CH3OCH3         CH3O2CH3        C2O            
 *C3             C3H3,1-propynl  C3H3,2-propynl  C3H4,allene     C3H4,propyne   
 C3H4,cyclo-     C3H5,allyl      C3H6,propylene  C3H6,cyclo-     C3H6O,propylox 
 C3H6O,acetone   C3H6O,propanal  C3H7,n-propyl   C3H7,i-propyl   C3H8           
 C3H8O,1propanol C3H8O,2propanol C3O2            *C4             C4H2,butadiyne 
 C4H4,1,3-cyclo- C4H6,butadiene  C4H6,1butyne    C4H6,2butyne    C4H6,cyclo-    
 C4H8,1-butene   C4H8,cis2-buten C4H8,tr2-butene C4H8,isobutene  C4H8,cyclo-    
 (CH3COOH)2      C4H9,n-butyl    C4H9,i-butyl    C4H9,s-butyl    C4H9,t-butyl   
 C4H10,n-butane  C4H10,isobutane *C5             C5H6,1,3cyclo-  C5H8,cyclo-    
 C5H10,1-pentene C5H10,cyclo-    C5H11,pentyl    C5H11,t-pentyl  C5H12,n-pentane
 C5H12,i-pentane CH3C(CH3)2CH3   C6H2            C6H5,phenyl     C6H5O,phenoxy  
 C6H6            C6H5OH,phenol   C6H10,cyclo-    C6H12,1-hexene  C6H12,cyclo-   
 C6H13,n-hexyl   C6H14,n-hexane  C7H7,benzyl     C7H8            C7H8O,cresol-mx
 C7H14,1-heptene C7H15,n-heptyl  C7H16,n-heptane C7H16,2-methylh C8H8,styrene   
 C8H10,ethylbenz C8H16,1-octene  C8H17,n-octyl   C8H18,n-octane  C8H18,isooctane
 C9H19,n-nonyl   C10H8,naphthale C10H21,n-decyl  C12H9,o-bipheny C12H10,biphenyl
 HCCO            HCHO,formaldehy HCOOH           (HCOOH)2        O3             
 C(gr)           H2O(cr)         H2O(L)         

 NOTE. WEIGHT FRACTION OF FUEL IN TOTAL FUELS AND OF OXIDANT IN TOTAL OXIDANTS






 WARNING!!  ASSIGNED pip =   0.00000 IS NOT PERMITTED
 TO BE LESS THAN  Pinj/Pc =  1.03027. POINT OMITTED (ROCKET)





              THEORETICAL ROCKET PERFORMANCE ASSUMING EQUILIBRIUM

            COMPOSITION DURING EXPANSION FROM FINITE AREA COMBUSTOR

 Pin =   111.7 PSIA
 Ac/At =  3.6982      Pinj/Pinf =  1.014805
 CASE =                

             REACTANT                    WT FRACTION      ENERGY      TEMP
                                          (SEE NOTE)     KJ/KG-MOL      K  
 OXIDANT     O2                           0.9643236    124070.459   3639.600
 OXIDANT     H2O                          0.0214058    -77224.139   3639.600
 OXIDANT     CO2                          0.0142705   -200714.464   3639.600
 FUEL        PP                           1.0000000    -78826.000    293.150

 O/F=    2.84335  %FUEL= 26.018989  R,EQ.RATIO= 1.240683  PHI,EQ.RATIO= 1.248017

                 INJECTOR  COMB END  THROAT
 Pinj/P            1.0000   1.0303   1.7517
 P, BAR            7.7000   7.4738   4.3958
 T, K             3642.23  3635.05  3482.25
 RHO, KG/CU M    5.2886-1 5.1448-1 3.2151-1
 H, KJ/KG         2162.73  2140.74  1392.78
 U, KJ/KG          706.77   688.07   25.537
 G, KJ/KG        -44653.8 -44604.8 -43387.8
 S, KJ/(KG)(K)    12.8538  12.8597  12.8597

 M, (1/n)          20.800   20.805   21.176
 (dLV/dLP)t      -1.08768 -1.08765 -1.08366
 (dLV/dLT)p        2.4675   2.4700   2.4690
 Cp, KJ/(KG)(K)   11.9188  11.9523  12.2242
 GAMMAs            1.1319   1.1316   1.1263
 SON VEL,M/SEC     1283.7   1282.2   1240.9
 MACH NUMBER        0.000    0.164    1.000

 PERFORMANCE PARAMETERS

 Ae/At                      3.6982   1.0000
 CSTAR, M/SEC               1901.8   1901.8
 CF                         0.1103   0.6525
 Ivac, M/SEC                7137.5   2342.7
 Isp, M/SEC                  209.7   1240.9


 MOLE FRACTIONS

 *CO              0.30623  0.30613  0.30346
 *CO2             0.08458  0.08478  0.09443
 *H               0.08785  0.08782  0.08112
 HCO              0.00001  0.00001  0.00001
 HO2              0.00009  0.00009  0.00007
 *H2              0.09144  0.09141  0.08967
 H2O              0.21416  0.21444  0.23029
 H2O2             0.00001  0.00001  0.00000
 *O               0.05625  0.05615  0.04990
 *OH              0.10906  0.10882  0.10173
 *O2              0.05033  0.05033  0.04932

  * THERMODYNAMIC PROPERTIES FITTED TO 20000.K

    PRODUCTS WHICH WERE CONSIDERED BUT WHOSE MOLE FRACTIONS
    WERE LESS THAN 5.000000E-06 FOR ALL ASSIGNED CONDITIONS

 *C              *CH             CH2             CH3             CH2OH          
 CH3O            CH4             CH3OH           CH3OOH          COOH           
 *C2             C2H             C2H2,acetylene  C2H2,vinylidene CH2CO,ketene   
 O(CH)2O         HO(CO)2OH       C2H3,vinyl      CH3CO,acetyl    C2H4           
 C2H4O,ethylen-o CH3CHO,ethanal  CH3COOH         OHCH2COOH       C2H5           
 C2H6            C2H5OH          CH3OCH3         CH3O2CH3        C2O            
 *C3             C3H3,1-propynl  C3H3,2-propynl  C3H4,allene     C3H4,propyne   
 C3H4,cyclo-     C3H5,allyl      C3H6,propylene  C3H6,cyclo-     C3H6O,propylox 
 C3H6O,acetone   C3H6O,propanal  C3H7,n-propyl   C3H7,i-propyl   C3H8           
 C3H8O,1propanol C3H8O,2propanol C3O2            *C4             C4H2,butadiyne 
 C4H4,1,3-cyclo- C4H6,butadiene  C4H6,1butyne    C4H6,2butyne    C4H6,cyclo-    
 C4H8,1-butene   C4H8,cis2-buten C4H8,tr2-butene C4H8,isobutene  C4H8,cyclo-    
 (CH3COOH)2      C4H9,n-butyl    C4H9,i-butyl    C4H9,s-butyl    C4H9,t-butyl   
 C4H10,n-butane  C4H10,isobutane *C5             C5H6,1,3cyclo-  C5H8,cyclo-    
 C5H10,1-pentene C5H10,cyclo-    C5H11,pentyl    C5H11,t-pentyl  C5H12,n-pentane
 C5H12,i-pentane CH3C(CH3)2CH3   C6H2            C6H5,phenyl     C6H5O,phenoxy  
 C6H6            C6H5OH,phenol   C6H10,cyclo-    C6H12,1-hexene  C6H12,cyclo-   
 C6H13,n-hexyl   C6H14,n-hexane  C7H7,benzyl     C7H8            C7H8O,cresol-mx
 C7H14,1-heptene C7H15,n-heptyl  C7H16,n-heptane C7H16,2-methylh C8H8,styrene   
 C8H10,ethylbenz C8H16,1-octene  C8H17,n-octyl   C8H18,n-octane  C8H18,isooctane
 C9H19,n-nonyl   C10H8,naphthale C10H21,n-decyl  C12H9,o-bipheny C12H10,biphenyl
 HCCO            HCHO,formaldehy HCOOH           (HCOOH)2        O3             
 C(gr)           H2O(cr)         H2O(L)         

 NOTE. WEIGHT FRACTION OF FUEL IN TOTAL FUELS AND OF OXIDANT IN TOTAL OXIDANTS






 WARNING!!  ASSIGNED pip =   0.00000 IS NOT PERMITTED
 TO BE LESS THAN  Pinj/Pc =  1.03027. POINT OMITTED (ROCKET)





              THEORETICAL ROCKET PERFORMANCE ASSUMING EQUILIBRIUM

            COMPOSITION DURING EXPANSION FROM FINITE AREA COMBUSTOR

 Pin =   111.7 PSIA
 Ac/At =  3.6982      Pinj/Pinf =  1.014805
 CASE =                

             REACTANT                    WT FRACTION      ENERGY      TEMP
                                          (SEE NOTE)     KJ/KG-MOL      K  
 OXIDANT     O2                           0.9643236    124070.459   3639.600
 OXIDANT     H2O                          0.0214058    -77224.139   3639.600
 OXIDANT     CO2                          0.0142705   -200714.464   3639.600
 FUEL        PP                           1.0000000    -78826.000    293.150

 O/F=    2.84335  %FUEL= 26.018989  R,EQ.RATIO= 1.240683  PHI,EQ.RATIO= 1.248017

                 INJECTOR  COMB END  THROAT
 Pinj/P            1.0000   1.0303   1.7517
 P, BAR            7.7000   7.4738   4.3958
 T, K             3642.23  3635.05  3482.25
 RHO, KG/CU M    5.2886-1 5.1448-1 3.2151-1
 H, KJ/KG         2162.73  2140.74  1392.78
 U, KJ/KG          706.77   688.07   25.537
 G, KJ/KG        -44653.8 -44604.8 -43387.8
 S, KJ/(KG)(K)    12.8538  12.8597  12.8597

 M, (1/n)          20.800   20.805   21.176
 (dLV/dLP)t      -1.08768 -1.08765 -1.08366
 (dLV/dLT)p        2.4675   2.4700   2.4690
 Cp, KJ/(KG)(K)   11.9188  11.9523  12.2242
 GAMMAs            1.1319   1.1316   1.1263
 SON VEL,M/SEC     1283.7   1282.2   1240.9
 MACH NUMBER        0.000    0.164    1.000

 PERFORMANCE PARAMETERS

 Ae/At                      3.6982   1.0000
 CSTAR, M/SEC               1901.8   1901.8
 CF                         0.1103   0.6525
 Ivac, M/SEC                7137.5   2342.7
 Isp, M/SEC                  209.7   1240.9


 MOLE FRACTIONS

 *CO              0.30623  0.30613  0.30346
 *CO2             0.08458  0.08478  0.09443
 *H               0.08785  0.08782  0.08112
 HCO              0.00001  0.00001  0.00001
 HO2              0.00009  0.00009  0.00007
 *H2              0.09144  0.09141  0.08967
 H2O              0.21416  0.21444  0.23029
 H2O2             0.00001  0.00001  0.00000
 *O               0.05625  0.05615  0.04990
 *OH              0.10906  0.10882  0.10173
 *O2              0.05033  0.05033  0.04932

  * THERMODYNAMIC PROPERTIES FITTED TO 20000.K

    PRODUCTS WHICH WERE CONSIDERED BUT WHOSE MOLE FRACTIONS
    WERE LESS THAN 5.000000E-06 FOR ALL ASSIGNED CONDITIONS

 *C              *CH             CH2             CH3             CH2OH          
 CH3O            CH4             CH3OH           CH3OOH          COOH           
 *C2             C2H             C2H2,acetylene  C2H2,vinylidene CH2CO,ketene   
 O(CH)2O         HO(CO)2OH       C2H3,vinyl      CH3CO,acetyl    C2H4           
 C2H4O,ethylen-o CH3CHO,ethanal  CH3COOH         OHCH2COOH       C2H5           
 C2H6            C2H5OH          CH3OCH3         CH3O2CH3        C2O            
 *C3             C3H3,1-propynl  C3H3,2-propynl  C3H4,allene     C3H4,propyne   
 C3H4,cyclo-     C3H5,allyl      C3H6,propylene  C3H6,cyclo-     C3H6O,propylox 
 C3H6O,acetone   C3H6O,propanal  C3H7,n-propyl   C3H7,i-propyl   C3H8           
 C3H8O,1propanol C3H8O,2propanol C3O2            *C4             C4H2,butadiyne 
 C4H4,1,3-cyclo- C4H6,butadiene  C4H6,1butyne    C4H6,2butyne    C4H6,cyclo-    
 C4H8,1-butene   C4H8,cis2-buten C4H8,tr2-butene C4H8,isobutene  C4H8,cyclo-    
 (CH3COOH)2      C4H9,n-butyl    C4H9,i-butyl    C4H9,s-butyl    C4H9,t-butyl   
 C4H10,n-butane  C4H10,isobutane *C5             C5H6,1,3cyclo-  C5H8,cyclo-    
 C5H10,1-pentene C5H10,cyclo-    C5H11,pentyl    C5H11,t-pentyl  C5H12,n-pentane
 C5H12,i-pentane CH3C(CH3)2CH3   C6H2            C6H5,phenyl     C6H5O,phenoxy  
 C6H6            C6H5OH,phenol   C6H10,cyclo-    C6H12,1-hexene  C6H12,cyclo-   
 C6H13,n-hexyl   C6H14,n-hexane  C7H7,benzyl     C7H8            C7H8O,cresol-mx
 C7H14,1-heptene C7H15,n-heptyl  C7H16,n-heptane C7H16,2-methylh C8H8,styrene   
 C8H10,ethylbenz C8H16,1-octene  C8H17,n-octyl   C8H18,n-octane  C8H18,isooctane
 C9H19,n-nonyl   C10H8,naphthale C10H21,n-decyl  C12H9,o-bipheny C12H10,biphenyl
 HCCO            HCHO,formaldehy HCOOH           (HCOOH)2        O3             
 C(gr)           H2O(cr)         H2O(L)         

 NOTE. WEIGHT FRACTION OF FUEL IN TOTAL FUELS AND OF OXIDANT IN TOTAL OXIDANTS






 WARNING!!  ASSIGNED pip =   0.00000 IS NOT PERMITTED
 TO BE LESS THAN  Pinj/Pc =  1.03027. POINT OMITTED (ROCKET)





              THEORETICAL ROCKET PERFORMANCE ASSUMING EQUILIBRIUM

            COMPOSITION DURING EXPANSION FROM FINITE AREA COMBUSTOR

 Pin =   111.7 PSIA
 Ac/At =  3.6982      Pinj/Pinf =  1.014805
 CASE =                

             REACTANT                    WT FRACTION      ENERGY      TEMP
                                          (SEE NOTE)     KJ/KG-MOL      K  
 OXIDANT     O2                           0.9643236    124070.459   3639.600
 OXIDANT     H2O                          0.0214058    -77224.139   3639.600
 OXIDANT     CO2                          0.0142705   -200714.464   3639.600
 FUEL        PP                           1.0000000    -78826.000    293.150

 O/F=    2.84335  %FUEL= 26.018989  R,EQ.RATIO= 1.240683  PHI,EQ.RATIO= 1.248017

                 INJECTOR  COMB END  THROAT
 Pinj/P            1.0000   1.0303   1.7517
 P, BAR            7.7000   7.4738   4.3958
 T, K             3642.23  3635.05  3482.25
 RHO, KG/CU M    5.2886-1 5.1448-1 3.2151-1
 H, KJ/KG         2162.73  2140.74  1392.78
 U, KJ/KG          706.77   688.07   25.537
 G, KJ/KG        -44653.8 -44604.8 -43387.8
 S, KJ/(KG)(K)    12.8538  12.8597  12.8597

 M, (1/n)          20.800   20.805   21.176
 (dLV/dLP)t      -1.08768 -1.08765 -1.08366
 (dLV/dLT)p        2.4675   2.4700   2.4690
 Cp, KJ/(KG)(K)   11.9188  11.9523  12.2242
 GAMMAs            1.1319   1.1316   1.1263
 SON VEL,M/SEC     1283.7   1282.2   1240.9
 MACH NUMBER        0.000    0.164    1.000

 PERFORMANCE PARAMETERS

 Ae/At                      3.6982   1.0000
 CSTAR, M/SEC               1901.8   1901.8
 CF                         0.1103   0.6525
 Ivac, M/SEC                7137.5   2342.7
 Isp, M/SEC                  209.7   1240.9


 MOLE FRACTIONS

 *CO              0.30623  0.30613  0.30346
 *CO2             0.08458  0.08478  0.09443
 *H               0.08785  0.08782  0.08112
 HCO              0.00001  0.00001  0.00001
 HO2              0.00009  0.00009  0.00007
 *H2              0.09144  0.09141  0.08967
 H2O              0.21416  0.21444  0.23029
 H2O2             0.00001  0.00001  0.00000
 *O               0.05625  0.05615  0.04990
 *OH              0.10906  0.10882  0.10173
 *O2              0.05033  0.05033  0.04932

  * THERMODYNAMIC PROPERTIES FITTED TO 20000.K

    PRODUCTS WHICH WERE CONSIDERED BUT WHOSE MOLE FRACTIONS
    WERE LESS THAN 5.000000E-06 FOR ALL ASSIGNED CONDITIONS

 *C              *CH             CH2             CH3             CH2OH          
 CH3O            CH4             CH3OH           CH3OOH          COOH           
 *C2             C2H             C2H2,acetylene  C2H2,vinylidene CH2CO,ketene   
 O(CH)2O         HO(CO)2OH       C2H3,vinyl      CH3CO,acetyl    C2H4           
 C2H4O,ethylen-o CH3CHO,ethanal  CH3COOH         OHCH2COOH       C2H5           
 C2H6            C2H5OH          CH3OCH3         CH3O2CH3        C2O            
 *C3             C3H3,1-propynl  C3H3,2-propynl  C3H4,allene     C3H4,propyne   
 C3H4,cyclo-     C3H5,allyl      C3H6,propylene  C3H6,cyclo-     C3H6O,propylox 
 C3H6O,acetone   C3H6O,propanal  C3H7,n-propyl   C3H7,i-propyl   C3H8           
 C3H8O,1propanol C3H8O,2propanol C3O2            *C4             C4H2,butadiyne 
 C4H4,1,3-cyclo- C4H6,butadiene  C4H6,1butyne    C4H6,2butyne    C4H6,cyclo-    
 C4H8,1-butene   C4H8,cis2-buten C4H8,tr2-butene C4H8,isobutene  C4H8,cyclo-    
 (CH3COOH)2      C4H9,n-butyl    C4H9,i-butyl    C4H9,s-butyl    C4H9,t-butyl   
 C4H10,n-butane  C4H10,isobutane *C5             C5H6,1,3cyclo-  C5H8,cyclo-    
 C5H10,1-pentene C5H10,cyclo-    C5H11,pentyl    C5H11,t-pentyl  C5H12,n-pentane
 C5H12,i-pentane CH3C(CH3)2CH3   C6H2            C6H5,phenyl     C6H5O,phenoxy  
 C6H6            C6H5OH,phenol   C6H10,cyclo-    C6H12,1-hexene  C6H12,cyclo-   
 C6H13,n-hexyl   C6H14,n-hexane  C7H7,benzyl     C7H8            C7H8O,cresol-mx
 C7H14,1-heptene C7H15,n-heptyl  C7H16,n-heptane C7H16,2-methylh C8H8,styrene   
 C8H10,ethylbenz C8H16,1-octene  C8H17,n-octyl   C8H18,n-octane  C8H18,isooctane
 C9H19,n-nonyl   C10H8,naphthale C10H21,n-decyl  C12H9,o-bipheny C12H10,biphenyl
 HCCO            HCHO,formaldehy HCOOH           (HCOOH)2        O3             
 C(gr)           H2O(cr)         H2O(L)         

 NOTE. WEIGHT FRACTION OF FUEL IN TOTAL FUELS AND OF OXIDANT IN TOTAL OXIDANTS






 WARNING!!  ASSIGNED pip =   0.00000 IS NOT PERMITTED
 TO BE LESS THAN  Pinj/Pc =  1.03027. POINT OMITTED (ROCKET)





              THEORETICAL ROCKET PERFORMANCE ASSUMING EQUILIBRIUM

            COMPOSITION DURING EXPANSION FROM FINITE AREA COMBUSTOR

 Pin =   111.7 PSIA
 Ac/At =  3.6982      Pinj/Pinf =  1.014805
 CASE =                

             REACTANT                    WT FRACTION      ENERGY      TEMP
                                          (SEE NOTE)     KJ/KG-MOL      K  
 OXIDANT     O2                           0.9643236    124070.459   3639.600
 OXIDANT     H2O                          0.0214058    -77224.139   3639.600
 OXIDANT     CO2                          0.0142705   -200714.464   3639.600
 FUEL        PP                           1.0000000    -78826.000    293.150

 O/F=    2.84335  %FUEL= 26.018989  R,EQ.RATIO= 1.240683  PHI,EQ.RATIO= 1.248017

                 INJECTOR  COMB END  THROAT
 Pinj/P            1.0000   1.0303   1.7517
 P, BAR            7.7000   7.4738   4.3958
 T, K             3642.23  3635.05  3482.25
 RHO, KG/CU M    5.2886-1 5.1448-1 3.2151-1
 H, KJ/KG         2162.73  2140.74  1392.78
 U, KJ/KG          706.77   688.07   25.537
 G, KJ/KG        -44653.8 -44604.8 -43387.8
 S, KJ/(KG)(K)    12.8538  12.8597  12.8597

 M, (1/n)          20.800   20.805   21.176
 (dLV/dLP)t      -1.08768 -1.08765 -1.08366
 (dLV/dLT)p        2.4675   2.4700   2.4690
 Cp, KJ/(KG)(K)   11.9188  11.9523  12.2242
 GAMMAs            1.1319   1.1316   1.1263
 SON VEL,M/SEC     1283.7   1282.2   1240.9
 MACH NUMBER        0.000    0.164    1.000

 PERFORMANCE PARAMETERS

 Ae/At                      3.6982   1.0000
 CSTAR, M/SEC               1901.8   1901.8
 CF                         0.1103   0.6525
 Ivac, M/SEC                7137.5   2342.7
 Isp, M/SEC                  209.7   1240.9


 MOLE FRACTIONS

 *CO              0.30623  0.30613  0.30346
 *CO2             0.08458  0.08478  0.09443
 *H               0.08785  0.08782  0.08112
 HCO              0.00001  0.00001  0.00001
 HO2              0.00009  0.00009  0.00007
 *H2              0.09144  0.09141  0.08967
 H2O              0.21416  0.21444  0.23029
 H2O2             0.00001  0.00001  0.00000
 *O               0.05625  0.05615  0.04990
 *OH              0.10906  0.10882  0.10173
 *O2              0.05033  0.05033  0.04932

  * THERMODYNAMIC PROPERTIES FITTED TO 20000.K

    PRODUCTS WHICH WERE CONSIDERED BUT WHOSE MOLE FRACTIONS
    WERE LESS THAN 5.000000E-06 FOR ALL ASSIGNED CONDITIONS

 *C              *CH             CH2             CH3             CH2OH          
 CH3O            CH4             CH3OH           CH3OOH          COOH           
 *C2             C2H             C2H2,acetylene  C2H2,vinylidene CH2CO,ketene   
 O(CH)2O         HO(CO)2OH       C2H3,vinyl      CH3CO,acetyl    C2H4           
 C2H4O,ethylen-o CH3CHO,ethanal  CH3COOH         OHCH2COOH       C2H5           
 C2H6            C2H5OH          CH3OCH3         CH3O2CH3        C2O            
 *C3             C3H3,1-propynl  C3H3,2-propynl  C3H4,allene     C3H4,propyne   
 C3H4,cyclo-     C3H5,allyl      C3H6,propylene  C3H6,cyclo-     C3H6O,propylox 
 C3H6O,acetone   C3H6O,propanal  C3H7,n-propyl   C3H7,i-propyl   C3H8           
 C3H8O,1propanol C3H8O,2propanol C3O2            *C4             C4H2,butadiyne 
 C4H4,1,3-cyclo- C4H6,butadiene  C4H6,1butyne    C4H6,2butyne    C4H6,cyclo-    
 C4H8,1-butene   C4H8,cis2-buten C4H8,tr2-butene C4H8,isobutene  C4H8,cyclo-    
 (CH3COOH)2      C4H9,n-butyl    C4H9,i-butyl    C4H9,s-butyl    C4H9,t-butyl   
 C4H10,n-butane  C4H10,isobutane *C5             C5H6,1,3cyclo-  C5H8,cyclo-    
 C5H10,1-pentene C5H10,cyclo-    C5H11,pentyl    C5H11,t-pentyl  C5H12,n-pentane
 C5H12,i-pentane CH3C(CH3)2CH3   C6H2            C6H5,phenyl     C6H5O,phenoxy  
 C6H6            C6H5OH,phenol   C6H10,cyclo-    C6H12,1-hexene  C6H12,cyclo-   
 C6H13,n-hexyl   C6H14,n-hexane  C7H7,benzyl     C7H8            C7H8O,cresol-mx
 C7H14,1-heptene C7H15,n-heptyl  C7H16,n-heptane C7H16,2-methylh C8H8,styrene   
 C8H10,ethylbenz C8H16,1-octene  C8H17,n-octyl   C8H18,n-octane  C8H18,isooctane
 C9H19,n-nonyl   C10H8,naphthale C10H21,n-decyl  C12H9,o-bipheny C12H10,biphenyl
 HCCO            HCHO,formaldehy HCOOH           (HCOOH)2        O3             
 C(gr)           H2O(cr)         H2O(L)         

 NOTE. WEIGHT FRACTION OF FUEL IN TOTAL FUELS AND OF OXIDANT IN TOTAL OXIDANTS






 WARNING!!  ASSIGNED pip =   0.00000 IS NOT PERMITTED
 TO BE LESS THAN  Pinj/Pc =  1.03027. POINT OMITTED (ROCKET)





              THEORETICAL ROCKET PERFORMANCE ASSUMING EQUILIBRIUM

            COMPOSITION DURING EXPANSION FROM FINITE AREA COMBUSTOR

 Pin =   111.7 PSIA
 Ac/At =  3.6982      Pinj/Pinf =  1.014805
 CASE =                

             REACTANT                    WT FRACTION      ENERGY      TEMP
                                          (SEE NOTE)     KJ/KG-MOL      K  
 OXIDANT     O2                           0.9643236    124070.459   3639.600
 OXIDANT     H2O                          0.0214058    -77224.139   3639.600
 OXIDANT     CO2                          0.0142705   -200714.464   3639.600
 FUEL        PP                           1.0000000    -78826.000    293.150

 O/F=    2.84335  %FUEL= 26.018989  R,EQ.RATIO= 1.240683  PHI,EQ.RATIO= 1.248017

                 INJECTOR  COMB END  THROAT
 Pinj/P            1.0000   1.0303   1.7517
 P, BAR            7.7000   7.4738   4.3958
 T, K             3642.23  3635.05  3482.25
 RHO, KG/CU M    5.2886-1 5.1448-1 3.2151-1
 H, KJ/KG         2162.73  2140.74  1392.78
 U, KJ/KG          706.77   688.07   25.537
 G, KJ/KG        -44653.8 -44604.8 -43387.8
 S, KJ/(KG)(K)    12.8538  12.8597  12.8597

 M, (1/n)          20.800   20.805   21.176
 (dLV/dLP)t      -1.08768 -1.08765 -1.08366
 (dLV/dLT)p        2.4675   2.4700   2.4690
 Cp, KJ/(KG)(K)   11.9188  11.9523  12.2242
 GAMMAs            1.1319   1.1316   1.1263
 SON VEL,M/SEC     1283.7   1282.2   1240.9
 MACH NUMBER        0.000    0.164    1.000

 PERFORMANCE PARAMETERS

 Ae/At                      3.6982   1.0000
 CSTAR, M/SEC               1901.8   1901.8
 CF                         0.1103   0.6525
 Ivac, M/SEC                7137.5   2342.7
 Isp, M/SEC                  209.7   1240.9


 MOLE FRACTIONS

 *CO              0.30623  0.30613  0.30346
 *CO2             0.08458  0.08478  0.09443
 *H               0.08785  0.08782  0.08112
 HCO              0.00001  0.00001  0.00001
 HO2              0.00009  0.00009  0.00007
 *H2              0.09144  0.09141  0.08967
 H2O              0.21416  0.21444  0.23029
 H2O2             0.00001  0.00001  0.00000
 *O               0.05625  0.05615  0.04990
 *OH              0.10906  0.10882  0.10173
 *O2              0.05033  0.05033  0.04932

  * THERMODYNAMIC PROPERTIES FITTED TO 20000.K

    PRODUCTS WHICH WERE CONSIDERED BUT WHOSE MOLE FRACTIONS
    WERE LESS THAN 5.000000E-06 FOR ALL ASSIGNED CONDITIONS

 *C              *CH             CH2             CH3             CH2OH          
 CH3O            CH4             CH3OH           CH3OOH          COOH           
 *C2             C2H             C2H2,acetylene  C2H2,vinylidene CH2CO,ketene   
 O(CH)2O         HO(CO)2OH       C2H3,vinyl      CH3CO,acetyl    C2H4           
 C2H4O,ethylen-o CH3CHO,ethanal  CH3COOH         OHCH2COOH       C2H5           
 C2H6            C2H5OH          CH3OCH3         CH3O2CH3        C2O            
 *C3             C3H3,1-propynl  C3H3,2-propynl  C3H4,allene     C3H4,propyne   
 C3H4,cyclo-     C3H5,allyl      C3H6,propylene  C3H6,cyclo-     C3H6O,propylox 
 C3H6O,acetone   C3H6O,propanal  C3H7,n-propyl   C3H7,i-propyl   C3H8           
 C3H8O,1propanol C3H8O,2propanol C3O2            *C4             C4H2,butadiyne 
 C4H4,1,3-cyclo- C4H6,butadiene  C4H6,1butyne    C4H6,2butyne    C4H6,cyclo-    
 C4H8,1-butene   C4H8,cis2-buten C4H8,tr2-butene C4H8,isobutene  C4H8,cyclo-    
 (CH3COOH)2      C4H9,n-butyl    C4H9,i-butyl    C4H9,s-butyl    C4H9,t-butyl   
 C4H10,n-butane  C4H10,isobutane *C5             C5H6,1,3cyclo-  C5H8,cyclo-    
 C5H10,1-pentene C5H10,cyclo-    C5H11,pentyl    C5H11,t-pentyl  C5H12,n-pentane
 C5H12,i-pentane CH3C(CH3)2CH3   C6H2            C6H5,phenyl     C6H5O,phenoxy  
 C6H6            C6H5OH,phenol   C6H10,cyclo-    C6H12,1-hexene  C6H12,cyclo-   
 C6H13,n-hexyl   C6H14,n-hexane  C7H7,benzyl     C7H8            C7H8O,cresol-mx
 C7H14,1-heptene C7H15,n-heptyl  C7H16,n-heptane C7H16,2-methylh C8H8,styrene   
 C8H10,ethylbenz C8H16,1-octene  C8H17,n-octyl   C8H18,n-octane  C8H18,isooctane
 C9H19,n-nonyl   C10H8,naphthale C10H21,n-decyl  C12H9,o-bipheny C12H10,biphenyl
 HCCO            HCHO,formaldehy HCOOH           (HCOOH)2        O3             
 C(gr)           H2O(cr)         H2O(L)         

 NOTE. WEIGHT FRACTION OF FUEL IN TOTAL FUELS AND OF OXIDANT IN TOTAL OXIDANTS






 WARNING!!  ASSIGNED pip =   0.00000 IS NOT PERMITTED
 TO BE LESS THAN  Pinj/Pc =  1.03027. POINT OMITTED (ROCKET)





              THEORETICAL ROCKET PERFORMANCE ASSUMING EQUILIBRIUM

            COMPOSITION DURING EXPANSION FROM FINITE AREA COMBUSTOR

 Pin =   111.7 PSIA
 Ac/At =  3.6982      Pinj/Pinf =  1.014805
 CASE =                

             REACTANT                    WT FRACTION      ENERGY      TEMP
                                          (SEE NOTE)     KJ/KG-MOL      K  
 OXIDANT     O2                           0.9643236    124070.459   3639.600
 OXIDANT     H2O                          0.0214058    -77224.139   3639.600
 OXIDANT     CO2                          0.0142705   -200714.464   3639.600
 FUEL        PP                           1.0000000    -78826.000    293.150

 O/F=    2.84335  %FUEL= 26.018989  R,EQ.RATIO= 1.240683  PHI,EQ.RATIO= 1.248017

                 INJECTOR  COMB END  THROAT
 Pinj/P            1.0000   1.0303   1.7517
 P, BAR            7.7000   7.4738   4.3958
 T, K             3642.23  3635.05  3482.25
 RHO, KG/CU M    5.2886-1 5.1448-1 3.2151-1
 H, KJ/KG         2162.73  2140.74  1392.78
 U, KJ/KG          706.77   688.07   25.537
 G, KJ/KG        -44653.8 -44604.8 -43387.8
 S, KJ/(KG)(K)    12.8538  12.8597  12.8597

 M, (1/n)          20.800   20.805   21.176
 (dLV/dLP)t      -1.08768 -1.08765 -1.08366
 (dLV/dLT)p        2.4675   2.4700   2.4690
 Cp, KJ/(KG)(K)   11.9188  11.9523  12.2242
 GAMMAs            1.1319   1.1316   1.1263
 SON VEL,M/SEC     1283.7   1282.2   1240.9
 MACH NUMBER        0.000    0.164    1.000

 PERFORMANCE PARAMETERS

 Ae/At                      3.6982   1.0000
 CSTAR, M/SEC               1901.8   1901.8
 CF                         0.1103   0.6525
 Ivac, M/SEC                7137.5   2342.7
 Isp, M/SEC                  209.7   1240.9


 MOLE FRACTIONS

 *CO              0.30623  0.30613  0.30346
 *CO2             0.08458  0.08478  0.09443
 *H               0.08785  0.08782  0.08112
 HCO              0.00001  0.00001  0.00001
 HO2              0.00009  0.00009  0.00007
 *H2              0.09144  0.09141  0.08967
 H2O              0.21416  0.21444  0.23029
 H2O2             0.00001  0.00001  0.00000
 *O               0.05625  0.05615  0.04990
 *OH              0.10906  0.10882  0.10173
 *O2              0.05033  0.05033  0.04932

  * THERMODYNAMIC PROPERTIES FITTED TO 20000.K

    PRODUCTS WHICH WERE CONSIDERED BUT WHOSE MOLE FRACTIONS
    WERE LESS THAN 5.000000E-06 FOR ALL ASSIGNED CONDITIONS

 *C              *CH             CH2             CH3             CH2OH          
 CH3O            CH4             CH3OH           CH3OOH          COOH           
 *C2             C2H             C2H2,acetylene  C2H2,vinylidene CH2CO,ketene   
 O(CH)2O         HO(CO)2OH       C2H3,vinyl      CH3CO,acetyl    C2H4           
 C2H4O,ethylen-o CH3CHO,ethanal  CH3COOH         OHCH2COOH       C2H5           
 C2H6            C2H5OH          CH3OCH3         CH3O2CH3        C2O            
 *C3             C3H3,1-propynl  C3H3,2-propynl  C3H4,allene     C3H4,propyne   
 C3H4,cyclo-     C3H5,allyl      C3H6,propylene  C3H6,cyclo-     C3H6O,propylox 
 C3H6O,acetone   C3H6O,propanal  C3H7,n-propyl   C3H7,i-propyl   C3H8           
 C3H8O,1propanol C3H8O,2propanol C3O2            *C4             C4H2,butadiyne 
 C4H4,1,3-cyclo- C4H6,butadiene  C4H6,1butyne    C4H6,2butyne    C4H6,cyclo-    
 C4H8,1-butene   C4H8,cis2-buten C4H8,tr2-butene C4H8,isobutene  C4H8,cyclo-    
 (CH3COOH)2      C4H9,n-butyl    C4H9,i-butyl    C4H9,s-butyl    C4H9,t-butyl   
 C4H10,n-butane  C4H10,isobutane *C5             C5H6,1,3cyclo-  C5H8,cyclo-    
 C5H10,1-pentene C5H10,cyclo-    C5H11,pentyl    C5H11,t-pentyl  C5H12,n-pentane
 C5H12,i-pentane CH3C(CH3)2CH3   C6H2            C6H5,phenyl     C6H5O,phenoxy  
 C6H6            C6H5OH,phenol   C6H10,cyclo-    C6H12,1-hexene  C6H12,cyclo-   
 C6H13,n-hexyl   C6H14,n-hexane  C7H7,benzyl     C7H8            C7H8O,cresol-mx
 C7H14,1-heptene C7H15,n-heptyl  C7H16,n-heptane C7H16,2-methylh C8H8,styrene   
 C8H10,ethylbenz C8H16,1-octene  C8H17,n-octyl   C8H18,n-octane  C8H18,isooctane
 C9H19,n-nonyl   C10H8,naphthale C10H21,n-decyl  C12H9,o-bipheny C12H10,biphenyl
 HCCO            HCHO,formaldehy HCOOH           (HCOOH)2        O3             
 C(gr)           H2O(cr)         H2O(L)         

 NOTE. WEIGHT FRACTION OF FUEL IN TOTAL FUELS AND OF OXIDANT IN TOTAL OXIDANTS






 WARNING!!  ASSIGNED pip =   0.00000 IS NOT PERMITTED
 TO BE LESS THAN  Pinj/Pc =  1.03027. POINT OMITTED (ROCKET)





              THEORETICAL ROCKET PERFORMANCE ASSUMING EQUILIBRIUM

            COMPOSITION DURING EXPANSION FROM FINITE AREA COMBUSTOR

 Pin =   111.7 PSIA
 Ac/At =  3.6982      Pinj/Pinf =  1.014805
 CASE =                

             REACTANT                    WT FRACTION      ENERGY      TEMP
                                          (SEE NOTE)     KJ/KG-MOL      K  
 OXIDANT     O2                           0.9643236    124070.459   3639.600
 OXIDANT     H2O                          0.0214058    -77224.139   3639.600
 OXIDANT     CO2                          0.0142705   -200714.464   3639.600
 FUEL        PP                           1.0000000    -78826.000    293.150

 O/F=    2.84335  %FUEL= 26.018989  R,EQ.RATIO= 1.240683  PHI,EQ.RATIO= 1.248017

                 INJECTOR  COMB END  THROAT
 Pinj/P            1.0000   1.0303   1.7517
 P, BAR            7.7000   7.4738   4.3958
 T, K             3642.23  3635.05  3482.25
 RHO, KG/CU M    5.2886-1 5.1448-1 3.2151-1
 H, KJ/KG         2162.73  2140.74  1392.78
 U, KJ/KG          706.77   688.07   25.537
 G, KJ/KG        -44653.8 -44604.8 -43387.8
 S, KJ/(KG)(K)    12.8538  12.8597  12.8597

 M, (1/n)          20.800   20.805   21.176
 (dLV/dLP)t      -1.08768 -1.08765 -1.08366
 (dLV/dLT)p        2.4675   2.4700   2.4690
 Cp, KJ/(KG)(K)   11.9188  11.9523  12.2242
 GAMMAs            1.1319   1.1316   1.1263
 SON VEL,M/SEC     1283.7   1282.2   1240.9
 MACH NUMBER        0.000    0.164    1.000

 PERFORMANCE PARAMETERS

 Ae/At                      3.6982   1.0000
 CSTAR, M/SEC               1901.8   1901.8
 CF                         0.1103   0.6525
 Ivac, M/SEC                7137.5   2342.7
 Isp, M/SEC                  209.7   1240.9


 MOLE FRACTIONS

 *CO              0.30623  0.30613  0.30346
 *CO2             0.08458  0.08478  0.09443
 *H               0.08785  0.08782  0.08112
 HCO              0.00001  0.00001  0.00001
 HO2              0.00009  0.00009  0.00007
 *H2              0.09144  0.09141  0.08967
 H2O              0.21416  0.21444  0.23029
 H2O2             0.00001  0.00001  0.00000
 *O               0.05625  0.05615  0.04990
 *OH              0.10906  0.10882  0.10173
 *O2              0.05033  0.05033  0.04932

  * THERMODYNAMIC PROPERTIES FITTED TO 20000.K

    PRODUCTS WHICH WERE CONSIDERED BUT WHOSE MOLE FRACTIONS
    WERE LESS THAN 5.000000E-06 FOR ALL ASSIGNED CONDITIONS

 *C              *CH             CH2             CH3             CH2OH          
 CH3O            CH4             CH3OH           CH3OOH          COOH           
 *C2             C2H             C2H2,acetylene  C2H2,vinylidene CH2CO,ketene   
 O(CH)2O         HO(CO)2OH       C2H3,vinyl      CH3CO,acetyl    C2H4           
 C2H4O,ethylen-o CH3CHO,ethanal  CH3COOH         OHCH2COOH       C2H5           
 C2H6            C2H5OH          CH3OCH3         CH3O2CH3        C2O            
 *C3             C3H3,1-propynl  C3H3,2-propynl  C3H4,allene     C3H4,propyne   
 C3H4,cyclo-     C3H5,allyl      C3H6,propylene  C3H6,cyclo-     C3H6O,propylox 
 C3H6O,acetone   C3H6O,propanal  C3H7,n-propyl   C3H7,i-propyl   C3H8           
 C3H8O,1propanol C3H8O,2propanol C3O2            *C4             C4H2,butadiyne 
 C4H4,1,3-cyclo- C4H6,butadiene  C4H6,1butyne    C4H6,2butyne    C4H6,cyclo-    
 C4H8,1-butene   C4H8,cis2-buten C4H8,tr2-butene C4H8,isobutene  C4H8,cyclo-    
 (CH3COOH)2      C4H9,n-butyl    C4H9,i-butyl    C4H9,s-butyl    C4H9,t-butyl   
 C4H10,n-butane  C4H10,isobutane *C5             C5H6,1,3cyclo-  C5H8,cyclo-    
 C5H10,1-pentene C5H10,cyclo-    C5H11,pentyl    C5H11,t-pentyl  C5H12,n-pentane
 C5H12,i-pentane CH3C(CH3)2CH3   C6H2            C6H5,phenyl     C6H5O,phenoxy  
 C6H6            C6H5OH,phenol   C6H10,cyclo-    C6H12,1-hexene  C6H12,cyclo-   
 C6H13,n-hexyl   C6H14,n-hexane  C7H7,benzyl     C7H8            C7H8O,cresol-mx
 C7H14,1-heptene C7H15,n-heptyl  C7H16,n-heptane C7H16,2-methylh C8H8,styrene   
 C8H10,ethylbenz C8H16,1-octene  C8H17,n-octyl   C8H18,n-octane  C8H18,isooctane
 C9H19,n-nonyl   C10H8,naphthale C10H21,n-decyl  C12H9,o-bipheny C12H10,biphenyl
 HCCO            HCHO,formaldehy HCOOH           (HCOOH)2        O3             
 C(gr)           H2O(cr)         H2O(L)         

 NOTE. WEIGHT FRACTION OF FUEL IN TOTAL FUELS AND OF OXIDANT IN TOTAL OXIDANTS





   4    6    2215.079     -19.507     -13.790     -21.140





              THEORETICAL ROCKET PERFORMANCE ASSUMING EQUILIBRIUM

            COMPOSITION DURING EXPANSION FROM FINITE AREA COMBUSTOR

 Pin =   111.7 PSIA
 Ac/At =  3.6982      Pinj/Pinf =  1.014805
 CASE =                

             REACTANT                    WT FRACTION      ENERGY      TEMP
                                          (SEE NOTE)     KJ/KG-MOL      K  
 OXIDANT     O2                           0.9643236    124070.459   3639.600
 OXIDANT     H2O                          0.0214058    -77224.139   3639.600
 OXIDANT     CO2                          0.0142705   -200714.464   3639.600
 FUEL        PP                           1.0000000    -78826.000    293.150

 O/F=    2.84335  %FUEL= 26.018989  R,EQ.RATIO= 1.240683  PHI,EQ.RATIO= 1.248017

                 INJECTOR  COMB END  THROAT     EXIT
 Pinj/P            1.0000   1.0303   1.7517  1283.74
 P, BAR            7.7000   7.4738   4.3958  0.00600
 T, K             3642.23  3635.05  3482.25  2215.08
 RHO, KG/CU M    5.2886-1 5.1448-1 3.2151-1 8.2475-4
 H, KJ/KG         2162.73  2140.74  1392.78 -5207.13
 U, KJ/KG          706.77   688.07   25.537 -5934.39
 G, KJ/KG        -44653.8 -44604.8 -43387.8 -33692.4
 S, KJ/(KG)(K)    12.8538  12.8597  12.8597  12.8597

 M, (1/n)          20.800   20.805   21.176   25.324
 (dLV/dLP)t      -1.08768 -1.08765 -1.08366 -1.02024
 (dLV/dLT)p        2.4675   2.4700   2.4690   1.5709
 Cp, KJ/(KG)(K)   11.9188  11.9523  12.2242   7.2869
 GAMMAs            1.1319   1.1316   1.1263   1.1000
 SON VEL,M/SEC     1283.7   1282.2   1240.9    894.4
 MACH NUMBER        0.000    0.164    1.000    4.292

 PERFORMANCE PARAMETERS

 Ae/At                      3.6982   1.0000   126.00
 CSTAR, M/SEC               1901.8   1901.8   1901.8
 CF                         0.1103   0.6525   2.0187
 Ivac, M/SEC                7137.5   2342.7   4028.7
 Isp, M/SEC                  209.7   1240.9   3839.2


 MOLE FRACTIONS

 *CO              0.30623  0.30613  0.30346  0.22949
 *CO2             0.08458  0.08478  0.09443  0.24634
 *H               0.08785  0.08782  0.08112  0.02101
 HCO              0.00001  0.00001  0.00001  0.00000
 HO2              0.00009  0.00009  0.00007  0.00000
 *H2              0.09144  0.09141  0.08967  0.07024
 H2O              0.21416  0.21444  0.23029  0.40170
 H2O2             0.00001  0.00001  0.00000  0.00000
 *O               0.05625  0.05615  0.04990  0.00355
 *OH              0.10906  0.10882  0.10173  0.01914
 *O2              0.05033  0.05033  0.04932  0.00853

  * THERMODYNAMIC PROPERTIES FITTED TO 20000.K

    PRODUCTS WHICH WERE CONSIDERED BUT WHOSE MOLE FRACTIONS
    WERE LESS THAN 5.000000E-06 FOR ALL ASSIGNED CONDITIONS

 *C              *CH             CH2             CH3             CH2OH          
 CH3O            CH4             CH3OH           CH3OOH          COOH           
 *C2             C2H             C2H2,acetylene  C2H2,vinylidene CH2CO,ketene   
 O(CH)2O         HO(CO)2OH       C2H3,vinyl      CH3CO,acetyl    C2H4           
 C2H4O,ethylen-o CH3CHO,ethanal  CH3COOH         OHCH2COOH       C2H5           
 C2H6            C2H5OH          CH3OCH3         CH3O2CH3        C2O            
 *C3             C3H3,1-propynl  C3H3,2-propynl  C3H4,allene     C3H4,propyne   
 C3H4,cyclo-     C3H5,allyl      C3H6,propylene  C3H6,cyclo-     C3H6O,propylox 
 C3H6O,acetone   C3H6O,propanal  C3H7,n-propyl   C3H7,i-propyl   C3H8           
 C3H8O,1propanol C3H8O,2propanol C3O2            *C4             C4H2,butadiyne 
 C4H4,1,3-cyclo- C4H6,butadiene  C4H6,1butyne    C4H6,2butyne    C4H6,cyclo-    
 C4H8,1-butene   C4H8,cis2-buten C4H8,tr2-butene C4H8,isobutene  C4H8,cyclo-    
 (CH3COOH)2      C4H9,n-butyl    C4H9,i-butyl    C4H9,s-butyl    C4H9,t-butyl   
 C4H10,n-butane  C4H10,isobutane *C5             C5H6,1,3cyclo-  C5H8,cyclo-    
 C5H10,1-pentene C5H10,cyclo-    C5H11,pentyl    C5H11,t-pentyl  C5H12,n-pentane
 C5H12,i-pentane CH3C(CH3)2CH3   C6H2            C6H5,phenyl     C6H5O,phenoxy  
 C6H6            C6H5OH,phenol   C6H10,cyclo-    C6H12,1-hexene  C6H12,cyclo-   
 C6H13,n-hexyl   C6H14,n-hexane  C7H7,benzyl     C7H8            C7H8O,cresol-mx
 C7H14,1-heptene C7H15,n-heptyl  C7H16,n-heptane C7H16,2-methylh C8H8,styrene   
 C8H10,ethylbenz C8H16,1-octene  C8H17,n-octyl   C8H18,n-octane  C8H18,isooctane
 C9H19,n-nonyl   C10H8,naphthale C10H21,n-decyl  C12H9,o-bipheny C12H10,biphenyl
 HCCO            HCHO,formaldehy HCOOH           (HCOOH)2        O3             
 C(gr)           H2O(cr)         H2O(L)         

 NOTE. WEIGHT FRACTION OF FUEL IN TOTAL FUELS AND OF OXIDANT IN TOTAL OXIDANTS



