
 *******************************************************************************

         NASA-GLENN CHEMICAL EQUILIBRIUM PROGRAM CEA2, MAY 21, 2004
                   BY  BONNIE MCBRIDE AND SANFORD GORDON
      REFS: NASA RP-1311, PART I, 1994 AND NASA RP-1311, PART II, 1996

 *******************************************************************************



 prob rocket fac p,bar=5.2,ac/at=3.69822485207,
 o/f=2.84267821572, pi/pe=1, eq
 react
 	oxid=O2  wt=0.964334908211	t,k=3342.3
 	oxid=H2O wt=0.0213990550732	t,k=3342.3
 	oxid=CO2 wt=0.0142660367155	t,k=3342.3
 	fuel=PP  wt=100 t,k=293.15
 	h,kj/mol=-78.826  C 3 H 6
 end

 OPTIONS: TP=F  HP=F  SP=F  TV=F  UV=F  SV=F  DETN=F  SHOCK=F  REFL=F  INCD=F
 RKT=T  FROZ=F  EQL=T  IONS=F  SIUNIT=T  DEBUGF=F  SHKDBG=F  DETDBG=F  TRNSPT=F

 TRACE= 0.00E+00  S/R= 0.000000E+00  H/R= 0.000000E+00  U/R= 0.000000E+00

 Pc,BAR =     5.200000

 Pc/P =     1.0000

 SUBSONIC AREA RATIOS =

 SUPERSONIC AREA RATIOS =

 NFZ=  1  Mdot/Ac= 0.000000E+00  Ac/At= 3.698225E+00

    REACTANT          WT.FRAC   (ENERGY/R),K   TEMP,K  DENSITY
        EXPLODED FORMULA
 O: O2               0.964335   0.134602E+05  3342.30  0.0000
          O  2.00000
 O: H2O              0.021399  -0.113698E+05  3342.30  0.0000
          H  2.00000  O  1.00000
 O: CO2              0.014266  -0.263818E+05  3342.30  0.0000
          C  1.00000  O  2.00000
 F: PP               1.000000  -0.948053E+04   293.15  0.0000
          C  3.00000  H  6.00000

  SPECIES BEING CONSIDERED IN THIS SYSTEM
 (CONDENSED PHASE MAY HAVE NAME LISTED SEVERAL TIMES)
  LAST thermo.inp UPDATE:    9/09/04

  g 7/97  *C               tpis79  *CH              g 4/02  CH2            
  g 4/02  CH3              g11/00  CH2OH            g 7/00  CH3O           
  g 8/99  CH4              g 7/00  CH3OH            srd 01  CH3OOH         
  tpis79  *CO              g 9/99  *CO2             tpis91  COOH           
  tpis91  *C2              g 6/01  C2H              g 1/91  C2H2,acetylene 
  g 5/01  C2H2,vinylidene  g 4/02  CH2CO,ketene     g 3/02  O(CH)2O        
  srd 01  HO(CO)2OH        g 7/01  C2H3,vinyl       g 6/96  CH3CO,acetyl   
  g 1/00  C2H4             g 8/88  C2H4O,ethylen-o  g 8/88  CH3CHO,ethanal 
  g 6/00  CH3COOH          srd 01  OHCH2COOH        g 7/00  C2H5           
  g 7/00  C2H6             g 8/88  C2H5OH           g 7/00  CH3OCH3        
  srd 01  CH3O2CH3         g 8/00  C2O              tpis79  *C3            
  n 4/98  C3H3,1-propynl   n 4/98  C3H3,2-propynl   g 2/00  C3H4,allene    
  g 1/00  C3H4,propyne     g 5/90  C3H4,cyclo-      g 3/01  C3H5,allyl     
  g 2/00  C3H6,propylene   g 1/00  C3H6,cyclo-      g 6/01  C3H6O,propylox 
  g 6/97  C3H6O,acetone    g 1/02  C3H6O,propanal   g 7/01  C3H7,n-propyl  
  g 9/85  C3H7,i-propyl    g 2/00  C3H8             g 2/00  C3H8O,1propanol
  g 2/00  C3H8O,2propanol  g 7/88  C3O2             g tpis  *C4            
  g 7/01  C4H2,butadiyne   g 8/00  C4H4,1,3-cyclo-  n10/92  C4H6,butadiene 
  n10/93  C4H6,1butyne     n10/93  C4H6,2butyne     g 8/00  C4H6,cyclo-    
  n 4/88  C4H8,1-butene    n 4/88  C4H8,cis2-buten  n 4/88  C4H8,tr2-butene
  n 4/88  C4H8,isobutene   g 8/00  C4H8,cyclo-      g10/00  (CH3COOH)2     
  n10/84  C4H9,n-butyl     n10/84  C4H9,i-butyl     g 1/93  C4H9,s-butyl   
  g 1/93  C4H9,t-butyl     g12/00  C4H10,n-butane   g 8/00  C4H10,isobutane
  g 8/00  *C5              g 5/90  C5H6,1,3cyclo-   g 1/93  C5H8,cyclo-    
  n 4/87  C5H10,1-pentene  g 2/01  C5H10,cyclo-     n10/84  C5H11,pentyl   
  g 1/93  C5H11,t-pentyl   n10/85  C5H12,n-pentane  n10/85  C5H12,i-pentane
  n10/85  CH3C(CH3)2CH3    g 2/93  C6H2             g11/00  C6H5,phenyl    
  g 8/00  C6H5O,phenoxy    g 8/00  C6H6             g 8/00  C6H5OH,phenol  
  g 1/93  C6H10,cyclo-     n 4/87  C6H12,1-hexene   g 6/90  C6H12,cyclo-   
  n10/83  C6H13,n-hexyl    g 6/01  C6H14,n-hexane   g 7/01  C7H7,benzyl    
  g 1/93  C7H8             g12/00  C7H8O,cresol-mx  n 4/87  C7H14,1-heptene
  n10/83  C7H15,n-heptyl   n10/85  C7H16,n-heptane  n10/85  C7H16,2-methylh
  n 4/89  C8H8,styrene     n10/86  C8H10,ethylbenz  n 4/87  C8H16,1-octene 
  n10/83  C8H17,n-octyl    n 4/85  C8H18,n-octane   n 4/85  C8H18,isooctane
  n10/83  C9H19,n-nonyl    g 3/01  C10H8,naphthale  n10/83  C10H21,n-decyl 
  g 8/00  C12H9,o-bipheny  g 8/00  C12H10,biphenyl  g 6/97  *H             
  g 1/01  HCO              g 6/01  HCCO             g 4/02  HO2            
  tpis78  *H2              g 5/01  HCHO,formaldehy  g 6/01  HCOOH          
  g 8/89  H2O              g 6/99  H2O2             g 6/01  (HCOOH)2       
  g 5/97  *O               g 4/02  *OH              tpis89  *O2            
  g 8/01  O3               n 4/83  C(gr)            n 4/83  C(gr)          
  n 4/83  C(gr)            g11/99  H2O(cr)          g 8/01  H2O(L)         
  g 8/01  H2O(L)         

 O/F =   2.842678

                       EFFECTIVE FUEL     EFFECTIVE OXIDANT        MIXTURE
 ENTHALPY                  h(2)/R              h(1)/R               h0/R
 (KG-MOL)(K)/KG       -0.22529927E+03      0.38358685E+03      0.22513327E+03

 KG-FORM.WT./KG             bi(2)               bi(1)               b0i
  *O                   0.00000000E+00      0.62109336E-01      0.45946303E-01
  *H                   0.14258643E+00      0.23756561E-02      0.38863431E-01
  *C                   0.71293216E-01      0.32415812E-03      0.18792803E-01

 POINT ITN      T            O           H           C 
   1   26    3549.423     -16.150     -11.101     -16.934
   2    2    3542.357     -16.166     -11.118     -16.959
 Pinf/Pt = 1.727814
   3    3    3393.088     -16.363     -11.322     -17.317
 Pinf/Pt = 1.724267
   3    2    3393.626     -16.363     -11.321     -17.316
   4    2    3538.460     -16.171     -11.123     -16.968
   4    2    3538.086     -16.171     -11.124     -16.969
   4    1    3538.067     -16.171     -11.124     -16.969
   2    2    3546.908     -16.156     -11.107     -16.943
 Pinf/Pt = 1.727906
   3    3    3397.205     -16.353     -11.311     -17.301
 Pinf/Pt = 1.724352
   3    2    3397.746     -16.353     -11.310     -17.299
   4    2    3543.000     -16.160     -11.112     -16.952
   4    2    3542.625     -16.161     -11.113     -16.953
   4    1    3542.606     -16.161     -11.113     -16.953
 END OF CHAMBER ITERATIONS

 WARNING!!  ASSIGNED pip =   1.00000 IS NOT PERMITTED
 TO BE LESS THAN  Pinj/Pc =  1.03021. POINT OMITTED (ROCKET)





              THEORETICAL ROCKET PERFORMANCE ASSUMING EQUILIBRIUM

            COMPOSITION DURING EXPANSION FROM FINITE AREA COMBUSTOR

 Pin =    75.4 PSIA
 Ac/At =  3.6982      Pinj/Pinf =  1.014776
 CASE =                

             REACTANT                    WT FRACTION      ENERGY      TEMP
                                          (SEE NOTE)     KJ/KG-MOL      K  
 OXIDANT     O2                           0.9643349    111914.824   3342.300
 OXIDANT     H2O                          0.0213991    -94534.379   3342.300
 OXIDANT     CO2                          0.0142660   -219351.549   3342.300
 FUEL        PP                           1.0000000    -78826.000    293.150

 O/F=    2.84268  %FUEL= 26.023517  R,EQ.RATIO= 1.240956  PHI,EQ.RATIO= 1.248296

                 INJECTOR  COMB END  THROAT
 Pinj/P            1.0000   1.0302   1.7498
 P, BAR            5.2000   5.0475   2.9717
 T, K             3549.42  3542.61  3397.75
 RHO, KG/CU M    3.6792-1 3.5792-1 2.2358-1
 H, KJ/KG         1871.87  1850.57  1125.31
 U, KJ/KG          458.50   440.32  -203.83
 G, KJ/KG        -44022.7 -43976.5 -42827.9
 S, KJ/(KG)(K)    12.9301  12.9360  12.9360

 M, (1/n)          20.880   20.886   21.255
 (dLV/dLP)t      -1.08727 -1.08725 -1.08322
 (dLV/dLT)p        2.4993   2.5018   2.4978
 Cp, KJ/(KG)(K)   12.3561  12.3897  12.6413
 GAMMAs            1.1287   1.1285   1.1234
 SON VEL,M/SEC     1263.0   1261.5   1221.9
 MACH NUMBER        0.000    0.164    1.000

 PERFORMANCE PARAMETERS

 Ae/At                      3.6982   1.0000
 CSTAR, M/SEC               1875.6   1875.6
 CF                         0.1100   0.6515
 Ivac, M/SEC                7039.0   2309.7
 Isp, M/SEC                  206.4   1221.9


 MOLE FRACTIONS

 *CO              0.30498  0.30488  0.30203
 *CO2             0.08741  0.08763  0.09740
 *H               0.08740  0.08737  0.08077
 HCO              0.00001  0.00001  0.00000
 HO2              0.00008  0.00008  0.00006
 *H2              0.09107  0.09105  0.08933
 H2O              0.21800  0.21828  0.23397
 *O               0.05484  0.05474  0.04861
 *OH              0.10585  0.10561  0.09860
 *O2              0.05036  0.05036  0.04922

  * THERMODYNAMIC PROPERTIES FITTED TO 20000.K

    PRODUCTS WHICH WERE CONSIDERED BUT WHOSE MOLE FRACTIONS
    WERE LESS THAN 5.000000E-06 FOR ALL ASSIGNED CONDITIONS

 *C              *CH             CH2             CH3             CH2OH          
 CH3O            CH4             CH3OH           CH3OOH          COOH           
 *C2             C2H             C2H2,acetylene  C2H2,vinylidene CH2CO,ketene   
 O(CH)2O         HO(CO)2OH       C2H3,vinyl      CH3CO,acetyl    C2H4           
 C2H4O,ethylen-o CH3CHO,ethanal  CH3COOH         OHCH2COOH       C2H5           
 C2H6            C2H5OH          CH3OCH3         CH3O2CH3        C2O            
 *C3             C3H3,1-propynl  C3H3,2-propynl  C3H4,allene     C3H4,propyne   
 C3H4,cyclo-     C3H5,allyl      C3H6,propylene  C3H6,cyclo-     C3H6O,propylox 
 C3H6O,acetone   C3H6O,propanal  C3H7,n-propyl   C3H7,i-propyl   C3H8           
 C3H8O,1propanol C3H8O,2propanol C3O2            *C4             C4H2,butadiyne 
 C4H4,1,3-cyclo- C4H6,butadiene  C4H6,1butyne    C4H6,2butyne    C4H6,cyclo-    
 C4H8,1-butene   C4H8,cis2-buten C4H8,tr2-butene C4H8,isobutene  C4H8,cyclo-    
 (CH3COOH)2      C4H9,n-butyl    C4H9,i-butyl    C4H9,s-butyl    C4H9,t-butyl   
 C4H10,n-butane  C4H10,isobutane *C5             C5H6,1,3cyclo-  C5H8,cyclo-    
 C5H10,1-pentene C5H10,cyclo-    C5H11,pentyl    C5H11,t-pentyl  C5H12,n-pentane
 C5H12,i-pentane CH3C(CH3)2CH3   C6H2            C6H5,phenyl     C6H5O,phenoxy  
 C6H6            C6H5OH,phenol   C6H10,cyclo-    C6H12,1-hexene  C6H12,cyclo-   
 C6H13,n-hexyl   C6H14,n-hexane  C7H7,benzyl     C7H8            C7H8O,cresol-mx
 C7H14,1-heptene C7H15,n-heptyl  C7H16,n-heptane C7H16,2-methylh C8H8,styrene   
 C8H10,ethylbenz C8H16,1-octene  C8H17,n-octyl   C8H18,n-octane  C8H18,isooctane
 C9H19,n-nonyl   C10H8,naphthale C10H21,n-decyl  C12H9,o-bipheny C12H10,biphenyl
 HCCO            HCHO,formaldehy HCOOH           H2O2            (HCOOH)2       
 O3              C(gr)           H2O(cr)         H2O(L)         

 NOTE. WEIGHT FRACTION OF FUEL IN TOTAL FUELS AND OF OXIDANT IN TOTAL OXIDANTS






 WARNING!!  ASSIGNED pip =   0.00000 IS NOT PERMITTED
 TO BE LESS THAN  Pinj/Pc =  1.03021. POINT OMITTED (ROCKET)





              THEORETICAL ROCKET PERFORMANCE ASSUMING EQUILIBRIUM

            COMPOSITION DURING EXPANSION FROM FINITE AREA COMBUSTOR

 Pin =    75.4 PSIA
 Ac/At =  3.6982      Pinj/Pinf =  1.014776
 CASE =                

             REACTANT                    WT FRACTION      ENERGY      TEMP
                                          (SEE NOTE)     KJ/KG-MOL      K  
 OXIDANT     O2                           0.9643349    111914.824   3342.300
 OXIDANT     H2O                          0.0213991    -94534.379   3342.300
 OXIDANT     CO2                          0.0142660   -219351.549   3342.300
 FUEL        PP                           1.0000000    -78826.000    293.150

 O/F=    2.84268  %FUEL= 26.023517  R,EQ.RATIO= 1.240956  PHI,EQ.RATIO= 1.248296

                 INJECTOR  COMB END  THROAT
 Pinj/P            1.0000   1.0302   1.7498
 P, BAR            5.2000   5.0475   2.9717
 T, K             3549.42  3542.61  3397.75
 RHO, KG/CU M    3.6792-1 3.5792-1 2.2358-1
 H, KJ/KG         1871.87  1850.57  1125.31
 U, KJ/KG          458.50   440.32  -203.83
 G, KJ/KG        -44022.7 -43976.5 -42827.9
 S, KJ/(KG)(K)    12.9301  12.9360  12.9360

 M, (1/n)          20.880   20.886   21.255
 (dLV/dLP)t      -1.08727 -1.08725 -1.08322
 (dLV/dLT)p        2.4993   2.5018   2.4978
 Cp, KJ/(KG)(K)   12.3561  12.3897  12.6413
 GAMMAs            1.1287   1.1285   1.1234
 SON VEL,M/SEC     1263.0   1261.5   1221.9
 MACH NUMBER        0.000    0.164    1.000

 PERFORMANCE PARAMETERS

 Ae/At                      3.6982   1.0000
 CSTAR, M/SEC               1875.6   1875.6
 CF                         0.1100   0.6515
 Ivac, M/SEC                7039.0   2309.7
 Isp, M/SEC                  206.4   1221.9


 MOLE FRACTIONS

 *CO              0.30498  0.30488  0.30203
 *CO2             0.08741  0.08763  0.09740
 *H               0.08740  0.08737  0.08077
 HCO              0.00001  0.00001  0.00000
 HO2              0.00008  0.00008  0.00006
 *H2              0.09107  0.09105  0.08933
 H2O              0.21800  0.21828  0.23397
 *O               0.05484  0.05474  0.04861
 *OH              0.10585  0.10561  0.09860
 *O2              0.05036  0.05036  0.04922

  * THERMODYNAMIC PROPERTIES FITTED TO 20000.K

    PRODUCTS WHICH WERE CONSIDERED BUT WHOSE MOLE FRACTIONS
    WERE LESS THAN 5.000000E-06 FOR ALL ASSIGNED CONDITIONS

 *C              *CH             CH2             CH3             CH2OH          
 CH3O            CH4             CH3OH           CH3OOH          COOH           
 *C2             C2H             C2H2,acetylene  C2H2,vinylidene CH2CO,ketene   
 O(CH)2O         HO(CO)2OH       C2H3,vinyl      CH3CO,acetyl    C2H4           
 C2H4O,ethylen-o CH3CHO,ethanal  CH3COOH         OHCH2COOH       C2H5           
 C2H6            C2H5OH          CH3OCH3         CH3O2CH3        C2O            
 *C3             C3H3,1-propynl  C3H3,2-propynl  C3H4,allene     C3H4,propyne   
 C3H4,cyclo-     C3H5,allyl      C3H6,propylene  C3H6,cyclo-     C3H6O,propylox 
 C3H6O,acetone   C3H6O,propanal  C3H7,n-propyl   C3H7,i-propyl   C3H8           
 C3H8O,1propanol C3H8O,2propanol C3O2            *C4             C4H2,butadiyne 
 C4H4,1,3-cyclo- C4H6,butadiene  C4H6,1butyne    C4H6,2butyne    C4H6,cyclo-    
 C4H8,1-butene   C4H8,cis2-buten C4H8,tr2-butene C4H8,isobutene  C4H8,cyclo-    
 (CH3COOH)2      C4H9,n-butyl    C4H9,i-butyl    C4H9,s-butyl    C4H9,t-butyl   
 C4H10,n-butane  C4H10,isobutane *C5             C5H6,1,3cyclo-  C5H8,cyclo-    
 C5H10,1-pentene C5H10,cyclo-    C5H11,pentyl    C5H11,t-pentyl  C5H12,n-pentane
 C5H12,i-pentane CH3C(CH3)2CH3   C6H2            C6H5,phenyl     C6H5O,phenoxy  
 C6H6            C6H5OH,phenol   C6H10,cyclo-    C6H12,1-hexene  C6H12,cyclo-   
 C6H13,n-hexyl   C6H14,n-hexane  C7H7,benzyl     C7H8            C7H8O,cresol-mx
 C7H14,1-heptene C7H15,n-heptyl  C7H16,n-heptane C7H16,2-methylh C8H8,styrene   
 C8H10,ethylbenz C8H16,1-octene  C8H17,n-octyl   C8H18,n-octane  C8H18,isooctane
 C9H19,n-nonyl   C10H8,naphthale C10H21,n-decyl  C12H9,o-bipheny C12H10,biphenyl
 HCCO            HCHO,formaldehy HCOOH           H2O2            (HCOOH)2       
 O3              C(gr)           H2O(cr)         H2O(L)         

 NOTE. WEIGHT FRACTION OF FUEL IN TOTAL FUELS AND OF OXIDANT IN TOTAL OXIDANTS






 WARNING!!  ASSIGNED pip =   0.00000 IS NOT PERMITTED
 TO BE LESS THAN  Pinj/Pc =  1.03021. POINT OMITTED (ROCKET)





              THEORETICAL ROCKET PERFORMANCE ASSUMING EQUILIBRIUM

            COMPOSITION DURING EXPANSION FROM FINITE AREA COMBUSTOR

 Pin =    75.4 PSIA
 Ac/At =  3.6982      Pinj/Pinf =  1.014776
 CASE =                

             REACTANT                    WT FRACTION      ENERGY      TEMP
                                          (SEE NOTE)     KJ/KG-MOL      K  
 OXIDANT     O2                           0.9643349    111914.824   3342.300
 OXIDANT     H2O                          0.0213991    -94534.379   3342.300
 OXIDANT     CO2                          0.0142660   -219351.549   3342.300
 FUEL        PP                           1.0000000    -78826.000    293.150

 O/F=    2.84268  %FUEL= 26.023517  R,EQ.RATIO= 1.240956  PHI,EQ.RATIO= 1.248296

                 INJECTOR  COMB END  THROAT
 Pinj/P            1.0000   1.0302   1.7498
 P, BAR            5.2000   5.0475   2.9717
 T, K             3549.42  3542.61  3397.75
 RHO, KG/CU M    3.6792-1 3.5792-1 2.2358-1
 H, KJ/KG         1871.87  1850.57  1125.31
 U, KJ/KG          458.50   440.32  -203.83
 G, KJ/KG        -44022.7 -43976.5 -42827.9
 S, KJ/(KG)(K)    12.9301  12.9360  12.9360

 M, (1/n)          20.880   20.886   21.255
 (dLV/dLP)t      -1.08727 -1.08725 -1.08322
 (dLV/dLT)p        2.4993   2.5018   2.4978
 Cp, KJ/(KG)(K)   12.3561  12.3897  12.6413
 GAMMAs            1.1287   1.1285   1.1234
 SON VEL,M/SEC     1263.0   1261.5   1221.9
 MACH NUMBER        0.000    0.164    1.000

 PERFORMANCE PARAMETERS

 Ae/At                      3.6982   1.0000
 CSTAR, M/SEC               1875.6   1875.6
 CF                         0.1100   0.6515
 Ivac, M/SEC                7039.0   2309.7
 Isp, M/SEC                  206.4   1221.9


 MOLE FRACTIONS

 *CO              0.30498  0.30488  0.30203
 *CO2             0.08741  0.08763  0.09740
 *H               0.08740  0.08737  0.08077
 HCO              0.00001  0.00001  0.00000
 HO2              0.00008  0.00008  0.00006
 *H2              0.09107  0.09105  0.08933
 H2O              0.21800  0.21828  0.23397
 *O               0.05484  0.05474  0.04861
 *OH              0.10585  0.10561  0.09860
 *O2              0.05036  0.05036  0.04922

  * THERMODYNAMIC PROPERTIES FITTED TO 20000.K

    PRODUCTS WHICH WERE CONSIDERED BUT WHOSE MOLE FRACTIONS
    WERE LESS THAN 5.000000E-06 FOR ALL ASSIGNED CONDITIONS

 *C              *CH             CH2             CH3             CH2OH          
 CH3O            CH4             CH3OH           CH3OOH          COOH           
 *C2             C2H             C2H2,acetylene  C2H2,vinylidene CH2CO,ketene   
 O(CH)2O         HO(CO)2OH       C2H3,vinyl      CH3CO,acetyl    C2H4           
 C2H4O,ethylen-o CH3CHO,ethanal  CH3COOH         OHCH2COOH       C2H5           
 C2H6            C2H5OH          CH3OCH3         CH3O2CH3        C2O            
 *C3             C3H3,1-propynl  C3H3,2-propynl  C3H4,allene     C3H4,propyne   
 C3H4,cyclo-     C3H5,allyl      C3H6,propylene  C3H6,cyclo-     C3H6O,propylox 
 C3H6O,acetone   C3H6O,propanal  C3H7,n-propyl   C3H7,i-propyl   C3H8           
 C3H8O,1propanol C3H8O,2propanol C3O2            *C4             C4H2,butadiyne 
 C4H4,1,3-cyclo- C4H6,butadiene  C4H6,1butyne    C4H6,2butyne    C4H6,cyclo-    
 C4H8,1-butene   C4H8,cis2-buten C4H8,tr2-butene C4H8,isobutene  C4H8,cyclo-    
 (CH3COOH)2      C4H9,n-butyl    C4H9,i-butyl    C4H9,s-butyl    C4H9,t-butyl   
 C4H10,n-butane  C4H10,isobutane *C5             C5H6,1,3cyclo-  C5H8,cyclo-    
 C5H10,1-pentene C5H10,cyclo-    C5H11,pentyl    C5H11,t-pentyl  C5H12,n-pentane
 C5H12,i-pentane CH3C(CH3)2CH3   C6H2            C6H5,phenyl     C6H5O,phenoxy  
 C6H6            C6H5OH,phenol   C6H10,cyclo-    C6H12,1-hexene  C6H12,cyclo-   
 C6H13,n-hexyl   C6H14,n-hexane  C7H7,benzyl     C7H8            C7H8O,cresol-mx
 C7H14,1-heptene C7H15,n-heptyl  C7H16,n-heptane C7H16,2-methylh C8H8,styrene   
 C8H10,ethylbenz C8H16,1-octene  C8H17,n-octyl   C8H18,n-octane  C8H18,isooctane
 C9H19,n-nonyl   C10H8,naphthale C10H21,n-decyl  C12H9,o-bipheny C12H10,biphenyl
 HCCO            HCHO,formaldehy HCOOH           H2O2            (HCOOH)2       
 O3              C(gr)           H2O(cr)         H2O(L)         

 NOTE. WEIGHT FRACTION OF FUEL IN TOTAL FUELS AND OF OXIDANT IN TOTAL OXIDANTS






 WARNING!!  ASSIGNED pip =   0.00000 IS NOT PERMITTED
 TO BE LESS THAN  Pinj/Pc =  1.03021. POINT OMITTED (ROCKET)





              THEORETICAL ROCKET PERFORMANCE ASSUMING EQUILIBRIUM

            COMPOSITION DURING EXPANSION FROM FINITE AREA COMBUSTOR

 Pin =    75.4 PSIA
 Ac/At =  3.6982      Pinj/Pinf =  1.014776
 CASE =                

             REACTANT                    WT FRACTION      ENERGY      TEMP
                                          (SEE NOTE)     KJ/KG-MOL      K  
 OXIDANT     O2                           0.9643349    111914.824   3342.300
 OXIDANT     H2O                          0.0213991    -94534.379   3342.300
 OXIDANT     CO2                          0.0142660   -219351.549   3342.300
 FUEL        PP                           1.0000000    -78826.000    293.150

 O/F=    2.84268  %FUEL= 26.023517  R,EQ.RATIO= 1.240956  PHI,EQ.RATIO= 1.248296

                 INJECTOR  COMB END  THROAT
 Pinj/P            1.0000   1.0302   1.7498
 P, BAR            5.2000   5.0475   2.9717
 T, K             3549.42  3542.61  3397.75
 RHO, KG/CU M    3.6792-1 3.5792-1 2.2358-1
 H, KJ/KG         1871.87  1850.57  1125.31
 U, KJ/KG          458.50   440.32  -203.83
 G, KJ/KG        -44022.7 -43976.5 -42827.9
 S, KJ/(KG)(K)    12.9301  12.9360  12.9360

 M, (1/n)          20.880   20.886   21.255
 (dLV/dLP)t      -1.08727 -1.08725 -1.08322
 (dLV/dLT)p        2.4993   2.5018   2.4978
 Cp, KJ/(KG)(K)   12.3561  12.3897  12.6413
 GAMMAs            1.1287   1.1285   1.1234
 SON VEL,M/SEC     1263.0   1261.5   1221.9
 MACH NUMBER        0.000    0.164    1.000

 PERFORMANCE PARAMETERS

 Ae/At                      3.6982   1.0000
 CSTAR, M/SEC               1875.6   1875.6
 CF                         0.1100   0.6515
 Ivac, M/SEC                7039.0   2309.7
 Isp, M/SEC                  206.4   1221.9


 MOLE FRACTIONS

 *CO              0.30498  0.30488  0.30203
 *CO2             0.08741  0.08763  0.09740
 *H               0.08740  0.08737  0.08077
 HCO              0.00001  0.00001  0.00000
 HO2              0.00008  0.00008  0.00006
 *H2              0.09107  0.09105  0.08933
 H2O              0.21800  0.21828  0.23397
 *O               0.05484  0.05474  0.04861
 *OH              0.10585  0.10561  0.09860
 *O2              0.05036  0.05036  0.04922

  * THERMODYNAMIC PROPERTIES FITTED TO 20000.K

    PRODUCTS WHICH WERE CONSIDERED BUT WHOSE MOLE FRACTIONS
    WERE LESS THAN 5.000000E-06 FOR ALL ASSIGNED CONDITIONS

 *C              *CH             CH2             CH3             CH2OH          
 CH3O            CH4             CH3OH           CH3OOH          COOH           
 *C2             C2H             C2H2,acetylene  C2H2,vinylidene CH2CO,ketene   
 O(CH)2O         HO(CO)2OH       C2H3,vinyl      CH3CO,acetyl    C2H4           
 C2H4O,ethylen-o CH3CHO,ethanal  CH3COOH         OHCH2COOH       C2H5           
 C2H6            C2H5OH          CH3OCH3         CH3O2CH3        C2O            
 *C3             C3H3,1-propynl  C3H3,2-propynl  C3H4,allene     C3H4,propyne   
 C3H4,cyclo-     C3H5,allyl      C3H6,propylene  C3H6,cyclo-     C3H6O,propylox 
 C3H6O,acetone   C3H6O,propanal  C3H7,n-propyl   C3H7,i-propyl   C3H8           
 C3H8O,1propanol C3H8O,2propanol C3O2            *C4             C4H2,butadiyne 
 C4H4,1,3-cyclo- C4H6,butadiene  C4H6,1butyne    C4H6,2butyne    C4H6,cyclo-    
 C4H8,1-butene   C4H8,cis2-buten C4H8,tr2-butene C4H8,isobutene  C4H8,cyclo-    
 (CH3COOH)2      C4H9,n-butyl    C4H9,i-butyl    C4H9,s-butyl    C4H9,t-butyl   
 C4H10,n-butane  C4H10,isobutane *C5             C5H6,1,3cyclo-  C5H8,cyclo-    
 C5H10,1-pentene C5H10,cyclo-    C5H11,pentyl    C5H11,t-pentyl  C5H12,n-pentane
 C5H12,i-pentane CH3C(CH3)2CH3   C6H2            C6H5,phenyl     C6H5O,phenoxy  
 C6H6            C6H5OH,phenol   C6H10,cyclo-    C6H12,1-hexene  C6H12,cyclo-   
 C6H13,n-hexyl   C6H14,n-hexane  C7H7,benzyl     C7H8            C7H8O,cresol-mx
 C7H14,1-heptene C7H15,n-heptyl  C7H16,n-heptane C7H16,2-methylh C8H8,styrene   
 C8H10,ethylbenz C8H16,1-octene  C8H17,n-octyl   C8H18,n-octane  C8H18,isooctane
 C9H19,n-nonyl   C10H8,naphthale C10H21,n-decyl  C12H9,o-bipheny C12H10,biphenyl
 HCCO            HCHO,formaldehy HCOOH           H2O2            (HCOOH)2       
 O3              C(gr)           H2O(cr)         H2O(L)         

 NOTE. WEIGHT FRACTION OF FUEL IN TOTAL FUELS AND OF OXIDANT IN TOTAL OXIDANTS






 WARNING!!  ASSIGNED pip =   0.00000 IS NOT PERMITTED
 TO BE LESS THAN  Pinj/Pc =  1.03021. POINT OMITTED (ROCKET)





              THEORETICAL ROCKET PERFORMANCE ASSUMING EQUILIBRIUM

            COMPOSITION DURING EXPANSION FROM FINITE AREA COMBUSTOR

 Pin =    75.4 PSIA
 Ac/At =  3.6982      Pinj/Pinf =  1.014776
 CASE =                

             REACTANT                    WT FRACTION      ENERGY      TEMP
                                          (SEE NOTE)     KJ/KG-MOL      K  
 OXIDANT     O2                           0.9643349    111914.824   3342.300
 OXIDANT     H2O                          0.0213991    -94534.379   3342.300
 OXIDANT     CO2                          0.0142660   -219351.549   3342.300
 FUEL        PP                           1.0000000    -78826.000    293.150

 O/F=    2.84268  %FUEL= 26.023517  R,EQ.RATIO= 1.240956  PHI,EQ.RATIO= 1.248296

                 INJECTOR  COMB END  THROAT
 Pinj/P            1.0000   1.0302   1.7498
 P, BAR            5.2000   5.0475   2.9717
 T, K             3549.42  3542.61  3397.75
 RHO, KG/CU M    3.6792-1 3.5792-1 2.2358-1
 H, KJ/KG         1871.87  1850.57  1125.31
 U, KJ/KG          458.50   440.32  -203.83
 G, KJ/KG        -44022.7 -43976.5 -42827.9
 S, KJ/(KG)(K)    12.9301  12.9360  12.9360

 M, (1/n)          20.880   20.886   21.255
 (dLV/dLP)t      -1.08727 -1.08725 -1.08322
 (dLV/dLT)p        2.4993   2.5018   2.4978
 Cp, KJ/(KG)(K)   12.3561  12.3897  12.6413
 GAMMAs            1.1287   1.1285   1.1234
 SON VEL,M/SEC     1263.0   1261.5   1221.9
 MACH NUMBER        0.000    0.164    1.000

 PERFORMANCE PARAMETERS

 Ae/At                      3.6982   1.0000
 CSTAR, M/SEC               1875.6   1875.6
 CF                         0.1100   0.6515
 Ivac, M/SEC                7039.0   2309.7
 Isp, M/SEC                  206.4   1221.9


 MOLE FRACTIONS

 *CO              0.30498  0.30488  0.30203
 *CO2             0.08741  0.08763  0.09740
 *H               0.08740  0.08737  0.08077
 HCO              0.00001  0.00001  0.00000
 HO2              0.00008  0.00008  0.00006
 *H2              0.09107  0.09105  0.08933
 H2O              0.21800  0.21828  0.23397
 *O               0.05484  0.05474  0.04861
 *OH              0.10585  0.10561  0.09860
 *O2              0.05036  0.05036  0.04922

  * THERMODYNAMIC PROPERTIES FITTED TO 20000.K

    PRODUCTS WHICH WERE CONSIDERED BUT WHOSE MOLE FRACTIONS
    WERE LESS THAN 5.000000E-06 FOR ALL ASSIGNED CONDITIONS

 *C              *CH             CH2             CH3             CH2OH          
 CH3O            CH4             CH3OH           CH3OOH          COOH           
 *C2             C2H             C2H2,acetylene  C2H2,vinylidene CH2CO,ketene   
 O(CH)2O         HO(CO)2OH       C2H3,vinyl      CH3CO,acetyl    C2H4           
 C2H4O,ethylen-o CH3CHO,ethanal  CH3COOH         OHCH2COOH       C2H5           
 C2H6            C2H5OH          CH3OCH3         CH3O2CH3        C2O            
 *C3             C3H3,1-propynl  C3H3,2-propynl  C3H4,allene     C3H4,propyne   
 C3H4,cyclo-     C3H5,allyl      C3H6,propylene  C3H6,cyclo-     C3H6O,propylox 
 C3H6O,acetone   C3H6O,propanal  C3H7,n-propyl   C3H7,i-propyl   C3H8           
 C3H8O,1propanol C3H8O,2propanol C3O2            *C4             C4H2,butadiyne 
 C4H4,1,3-cyclo- C4H6,butadiene  C4H6,1butyne    C4H6,2butyne    C4H6,cyclo-    
 C4H8,1-butene   C4H8,cis2-buten C4H8,tr2-butene C4H8,isobutene  C4H8,cyclo-    
 (CH3COOH)2      C4H9,n-butyl    C4H9,i-butyl    C4H9,s-butyl    C4H9,t-butyl   
 C4H10,n-butane  C4H10,isobutane *C5             C5H6,1,3cyclo-  C5H8,cyclo-    
 C5H10,1-pentene C5H10,cyclo-    C5H11,pentyl    C5H11,t-pentyl  C5H12,n-pentane
 C5H12,i-pentane CH3C(CH3)2CH3   C6H2            C6H5,phenyl     C6H5O,phenoxy  
 C6H6            C6H5OH,phenol   C6H10,cyclo-    C6H12,1-hexene  C6H12,cyclo-   
 C6H13,n-hexyl   C6H14,n-hexane  C7H7,benzyl     C7H8            C7H8O,cresol-mx
 C7H14,1-heptene C7H15,n-heptyl  C7H16,n-heptane C7H16,2-methylh C8H8,styrene   
 C8H10,ethylbenz C8H16,1-octene  C8H17,n-octyl   C8H18,n-octane  C8H18,isooctane
 C9H19,n-nonyl   C10H8,naphthale C10H21,n-decyl  C12H9,o-bipheny C12H10,biphenyl
 HCCO            HCHO,formaldehy HCOOH           H2O2            (HCOOH)2       
 O3              C(gr)           H2O(cr)         H2O(L)         

 NOTE. WEIGHT FRACTION OF FUEL IN TOTAL FUELS AND OF OXIDANT IN TOTAL OXIDANTS






 WARNING!!  ASSIGNED pip =   0.00000 IS NOT PERMITTED
 TO BE LESS THAN  Pinj/Pc =  1.03021. POINT OMITTED (ROCKET)





              THEORETICAL ROCKET PERFORMANCE ASSUMING EQUILIBRIUM

            COMPOSITION DURING EXPANSION FROM FINITE AREA COMBUSTOR

 Pin =    75.4 PSIA
 Ac/At =  3.6982      Pinj/Pinf =  1.014776
 CASE =                

             REACTANT                    WT FRACTION      ENERGY      TEMP
                                          (SEE NOTE)     KJ/KG-MOL      K  
 OXIDANT     O2                           0.9643349    111914.824   3342.300
 OXIDANT     H2O                          0.0213991    -94534.379   3342.300
 OXIDANT     CO2                          0.0142660   -219351.549   3342.300
 FUEL        PP                           1.0000000    -78826.000    293.150

 O/F=    2.84268  %FUEL= 26.023517  R,EQ.RATIO= 1.240956  PHI,EQ.RATIO= 1.248296

                 INJECTOR  COMB END  THROAT
 Pinj/P            1.0000   1.0302   1.7498
 P, BAR            5.2000   5.0475   2.9717
 T, K             3549.42  3542.61  3397.75
 RHO, KG/CU M    3.6792-1 3.5792-1 2.2358-1
 H, KJ/KG         1871.87  1850.57  1125.31
 U, KJ/KG          458.50   440.32  -203.83
 G, KJ/KG        -44022.7 -43976.5 -42827.9
 S, KJ/(KG)(K)    12.9301  12.9360  12.9360

 M, (1/n)          20.880   20.886   21.255
 (dLV/dLP)t      -1.08727 -1.08725 -1.08322
 (dLV/dLT)p        2.4993   2.5018   2.4978
 Cp, KJ/(KG)(K)   12.3561  12.3897  12.6413
 GAMMAs            1.1287   1.1285   1.1234
 SON VEL,M/SEC     1263.0   1261.5   1221.9
 MACH NUMBER        0.000    0.164    1.000

 PERFORMANCE PARAMETERS

 Ae/At                      3.6982   1.0000
 CSTAR, M/SEC               1875.6   1875.6
 CF                         0.1100   0.6515
 Ivac, M/SEC                7039.0   2309.7
 Isp, M/SEC                  206.4   1221.9


 MOLE FRACTIONS

 *CO              0.30498  0.30488  0.30203
 *CO2             0.08741  0.08763  0.09740
 *H               0.08740  0.08737  0.08077
 HCO              0.00001  0.00001  0.00000
 HO2              0.00008  0.00008  0.00006
 *H2              0.09107  0.09105  0.08933
 H2O              0.21800  0.21828  0.23397
 *O               0.05484  0.05474  0.04861
 *OH              0.10585  0.10561  0.09860
 *O2              0.05036  0.05036  0.04922

  * THERMODYNAMIC PROPERTIES FITTED TO 20000.K

    PRODUCTS WHICH WERE CONSIDERED BUT WHOSE MOLE FRACTIONS
    WERE LESS THAN 5.000000E-06 FOR ALL ASSIGNED CONDITIONS

 *C              *CH             CH2             CH3             CH2OH          
 CH3O            CH4             CH3OH           CH3OOH          COOH           
 *C2             C2H             C2H2,acetylene  C2H2,vinylidene CH2CO,ketene   
 O(CH)2O         HO(CO)2OH       C2H3,vinyl      CH3CO,acetyl    C2H4           
 C2H4O,ethylen-o CH3CHO,ethanal  CH3COOH         OHCH2COOH       C2H5           
 C2H6            C2H5OH          CH3OCH3         CH3O2CH3        C2O            
 *C3             C3H3,1-propynl  C3H3,2-propynl  C3H4,allene     C3H4,propyne   
 C3H4,cyclo-     C3H5,allyl      C3H6,propylene  C3H6,cyclo-     C3H6O,propylox 
 C3H6O,acetone   C3H6O,propanal  C3H7,n-propyl   C3H7,i-propyl   C3H8           
 C3H8O,1propanol C3H8O,2propanol C3O2            *C4             C4H2,butadiyne 
 C4H4,1,3-cyclo- C4H6,butadiene  C4H6,1butyne    C4H6,2butyne    C4H6,cyclo-    
 C4H8,1-butene   C4H8,cis2-buten C4H8,tr2-butene C4H8,isobutene  C4H8,cyclo-    
 (CH3COOH)2      C4H9,n-butyl    C4H9,i-butyl    C4H9,s-butyl    C4H9,t-butyl   
 C4H10,n-butane  C4H10,isobutane *C5             C5H6,1,3cyclo-  C5H8,cyclo-    
 C5H10,1-pentene C5H10,cyclo-    C5H11,pentyl    C5H11,t-pentyl  C5H12,n-pentane
 C5H12,i-pentane CH3C(CH3)2CH3   C6H2            C6H5,phenyl     C6H5O,phenoxy  
 C6H6            C6H5OH,phenol   C6H10,cyclo-    C6H12,1-hexene  C6H12,cyclo-   
 C6H13,n-hexyl   C6H14,n-hexane  C7H7,benzyl     C7H8            C7H8O,cresol-mx
 C7H14,1-heptene C7H15,n-heptyl  C7H16,n-heptane C7H16,2-methylh C8H8,styrene   
 C8H10,ethylbenz C8H16,1-octene  C8H17,n-octyl   C8H18,n-octane  C8H18,isooctane
 C9H19,n-nonyl   C10H8,naphthale C10H21,n-decyl  C12H9,o-bipheny C12H10,biphenyl
 HCCO            HCHO,formaldehy HCOOH           H2O2            (HCOOH)2       
 O3              C(gr)           H2O(cr)         H2O(L)         

 NOTE. WEIGHT FRACTION OF FUEL IN TOTAL FUELS AND OF OXIDANT IN TOTAL OXIDANTS






 WARNING!!  ASSIGNED pip =   0.00000 IS NOT PERMITTED
 TO BE LESS THAN  Pinj/Pc =  1.03021. POINT OMITTED (ROCKET)





              THEORETICAL ROCKET PERFORMANCE ASSUMING EQUILIBRIUM

            COMPOSITION DURING EXPANSION FROM FINITE AREA COMBUSTOR

 Pin =    75.4 PSIA
 Ac/At =  3.6982      Pinj/Pinf =  1.014776
 CASE =                

             REACTANT                    WT FRACTION      ENERGY      TEMP
                                          (SEE NOTE)     KJ/KG-MOL      K  
 OXIDANT     O2                           0.9643349    111914.824   3342.300
 OXIDANT     H2O                          0.0213991    -94534.379   3342.300
 OXIDANT     CO2                          0.0142660   -219351.549   3342.300
 FUEL        PP                           1.0000000    -78826.000    293.150

 O/F=    2.84268  %FUEL= 26.023517  R,EQ.RATIO= 1.240956  PHI,EQ.RATIO= 1.248296

                 INJECTOR  COMB END  THROAT
 Pinj/P            1.0000   1.0302   1.7498
 P, BAR            5.2000   5.0475   2.9717
 T, K             3549.42  3542.61  3397.75
 RHO, KG/CU M    3.6792-1 3.5792-1 2.2358-1
 H, KJ/KG         1871.87  1850.57  1125.31
 U, KJ/KG          458.50   440.32  -203.83
 G, KJ/KG        -44022.7 -43976.5 -42827.9
 S, KJ/(KG)(K)    12.9301  12.9360  12.9360

 M, (1/n)          20.880   20.886   21.255
 (dLV/dLP)t      -1.08727 -1.08725 -1.08322
 (dLV/dLT)p        2.4993   2.5018   2.4978
 Cp, KJ/(KG)(K)   12.3561  12.3897  12.6413
 GAMMAs            1.1287   1.1285   1.1234
 SON VEL,M/SEC     1263.0   1261.5   1221.9
 MACH NUMBER        0.000    0.164    1.000

 PERFORMANCE PARAMETERS

 Ae/At                      3.6982   1.0000
 CSTAR, M/SEC               1875.6   1875.6
 CF                         0.1100   0.6515
 Ivac, M/SEC                7039.0   2309.7
 Isp, M/SEC                  206.4   1221.9


 MOLE FRACTIONS

 *CO              0.30498  0.30488  0.30203
 *CO2             0.08741  0.08763  0.09740
 *H               0.08740  0.08737  0.08077
 HCO              0.00001  0.00001  0.00000
 HO2              0.00008  0.00008  0.00006
 *H2              0.09107  0.09105  0.08933
 H2O              0.21800  0.21828  0.23397
 *O               0.05484  0.05474  0.04861
 *OH              0.10585  0.10561  0.09860
 *O2              0.05036  0.05036  0.04922

  * THERMODYNAMIC PROPERTIES FITTED TO 20000.K

    PRODUCTS WHICH WERE CONSIDERED BUT WHOSE MOLE FRACTIONS
    WERE LESS THAN 5.000000E-06 FOR ALL ASSIGNED CONDITIONS

 *C              *CH             CH2             CH3             CH2OH          
 CH3O            CH4             CH3OH           CH3OOH          COOH           
 *C2             C2H             C2H2,acetylene  C2H2,vinylidene CH2CO,ketene   
 O(CH)2O         HO(CO)2OH       C2H3,vinyl      CH3CO,acetyl    C2H4           
 C2H4O,ethylen-o CH3CHO,ethanal  CH3COOH         OHCH2COOH       C2H5           
 C2H6            C2H5OH          CH3OCH3         CH3O2CH3        C2O            
 *C3             C3H3,1-propynl  C3H3,2-propynl  C3H4,allene     C3H4,propyne   
 C3H4,cyclo-     C3H5,allyl      C3H6,propylene  C3H6,cyclo-     C3H6O,propylox 
 C3H6O,acetone   C3H6O,propanal  C3H7,n-propyl   C3H7,i-propyl   C3H8           
 C3H8O,1propanol C3H8O,2propanol C3O2            *C4             C4H2,butadiyne 
 C4H4,1,3-cyclo- C4H6,butadiene  C4H6,1butyne    C4H6,2butyne    C4H6,cyclo-    
 C4H8,1-butene   C4H8,cis2-buten C4H8,tr2-butene C4H8,isobutene  C4H8,cyclo-    
 (CH3COOH)2      C4H9,n-butyl    C4H9,i-butyl    C4H9,s-butyl    C4H9,t-butyl   
 C4H10,n-butane  C4H10,isobutane *C5             C5H6,1,3cyclo-  C5H8,cyclo-    
 C5H10,1-pentene C5H10,cyclo-    C5H11,pentyl    C5H11,t-pentyl  C5H12,n-pentane
 C5H12,i-pentane CH3C(CH3)2CH3   C6H2            C6H5,phenyl     C6H5O,phenoxy  
 C6H6            C6H5OH,phenol   C6H10,cyclo-    C6H12,1-hexene  C6H12,cyclo-   
 C6H13,n-hexyl   C6H14,n-hexane  C7H7,benzyl     C7H8            C7H8O,cresol-mx
 C7H14,1-heptene C7H15,n-heptyl  C7H16,n-heptane C7H16,2-methylh C8H8,styrene   
 C8H10,ethylbenz C8H16,1-octene  C8H17,n-octyl   C8H18,n-octane  C8H18,isooctane
 C9H19,n-nonyl   C10H8,naphthale C10H21,n-decyl  C12H9,o-bipheny C12H10,biphenyl
 HCCO            HCHO,formaldehy HCOOH           H2O2            (HCOOH)2       
 O3              C(gr)           H2O(cr)         H2O(L)         

 NOTE. WEIGHT FRACTION OF FUEL IN TOTAL FUELS AND OF OXIDANT IN TOTAL OXIDANTS






 WARNING!!  ASSIGNED pip =   0.00000 IS NOT PERMITTED
 TO BE LESS THAN  Pinj/Pc =  1.03021. POINT OMITTED (ROCKET)





              THEORETICAL ROCKET PERFORMANCE ASSUMING EQUILIBRIUM

            COMPOSITION DURING EXPANSION FROM FINITE AREA COMBUSTOR

 Pin =    75.4 PSIA
 Ac/At =  3.6982      Pinj/Pinf =  1.014776
 CASE =                

             REACTANT                    WT FRACTION      ENERGY      TEMP
                                          (SEE NOTE)     KJ/KG-MOL      K  
 OXIDANT     O2                           0.9643349    111914.824   3342.300
 OXIDANT     H2O                          0.0213991    -94534.379   3342.300
 OXIDANT     CO2                          0.0142660   -219351.549   3342.300
 FUEL        PP                           1.0000000    -78826.000    293.150

 O/F=    2.84268  %FUEL= 26.023517  R,EQ.RATIO= 1.240956  PHI,EQ.RATIO= 1.248296

                 INJECTOR  COMB END  THROAT
 Pinj/P            1.0000   1.0302   1.7498
 P, BAR            5.2000   5.0475   2.9717
 T, K             3549.42  3542.61  3397.75
 RHO, KG/CU M    3.6792-1 3.5792-1 2.2358-1
 H, KJ/KG         1871.87  1850.57  1125.31
 U, KJ/KG          458.50   440.32  -203.83
 G, KJ/KG        -44022.7 -43976.5 -42827.9
 S, KJ/(KG)(K)    12.9301  12.9360  12.9360

 M, (1/n)          20.880   20.886   21.255
 (dLV/dLP)t      -1.08727 -1.08725 -1.08322
 (dLV/dLT)p        2.4993   2.5018   2.4978
 Cp, KJ/(KG)(K)   12.3561  12.3897  12.6413
 GAMMAs            1.1287   1.1285   1.1234
 SON VEL,M/SEC     1263.0   1261.5   1221.9
 MACH NUMBER        0.000    0.164    1.000

 PERFORMANCE PARAMETERS

 Ae/At                      3.6982   1.0000
 CSTAR, M/SEC               1875.6   1875.6
 CF                         0.1100   0.6515
 Ivac, M/SEC                7039.0   2309.7
 Isp, M/SEC                  206.4   1221.9


 MOLE FRACTIONS

 *CO              0.30498  0.30488  0.30203
 *CO2             0.08741  0.08763  0.09740
 *H               0.08740  0.08737  0.08077
 HCO              0.00001  0.00001  0.00000
 HO2              0.00008  0.00008  0.00006
 *H2              0.09107  0.09105  0.08933
 H2O              0.21800  0.21828  0.23397
 *O               0.05484  0.05474  0.04861
 *OH              0.10585  0.10561  0.09860
 *O2              0.05036  0.05036  0.04922

  * THERMODYNAMIC PROPERTIES FITTED TO 20000.K

    PRODUCTS WHICH WERE CONSIDERED BUT WHOSE MOLE FRACTIONS
    WERE LESS THAN 5.000000E-06 FOR ALL ASSIGNED CONDITIONS

 *C              *CH             CH2             CH3             CH2OH          
 CH3O            CH4             CH3OH           CH3OOH          COOH           
 *C2             C2H             C2H2,acetylene  C2H2,vinylidene CH2CO,ketene   
 O(CH)2O         HO(CO)2OH       C2H3,vinyl      CH3CO,acetyl    C2H4           
 C2H4O,ethylen-o CH3CHO,ethanal  CH3COOH         OHCH2COOH       C2H5           
 C2H6            C2H5OH          CH3OCH3         CH3O2CH3        C2O            
 *C3             C3H3,1-propynl  C3H3,2-propynl  C3H4,allene     C3H4,propyne   
 C3H4,cyclo-     C3H5,allyl      C3H6,propylene  C3H6,cyclo-     C3H6O,propylox 
 C3H6O,acetone   C3H6O,propanal  C3H7,n-propyl   C3H7,i-propyl   C3H8           
 C3H8O,1propanol C3H8O,2propanol C3O2            *C4             C4H2,butadiyne 
 C4H4,1,3-cyclo- C4H6,butadiene  C4H6,1butyne    C4H6,2butyne    C4H6,cyclo-    
 C4H8,1-butene   C4H8,cis2-buten C4H8,tr2-butene C4H8,isobutene  C4H8,cyclo-    
 (CH3COOH)2      C4H9,n-butyl    C4H9,i-butyl    C4H9,s-butyl    C4H9,t-butyl   
 C4H10,n-butane  C4H10,isobutane *C5             C5H6,1,3cyclo-  C5H8,cyclo-    
 C5H10,1-pentene C5H10,cyclo-    C5H11,pentyl    C5H11,t-pentyl  C5H12,n-pentane
 C5H12,i-pentane CH3C(CH3)2CH3   C6H2            C6H5,phenyl     C6H5O,phenoxy  
 C6H6            C6H5OH,phenol   C6H10,cyclo-    C6H12,1-hexene  C6H12,cyclo-   
 C6H13,n-hexyl   C6H14,n-hexane  C7H7,benzyl     C7H8            C7H8O,cresol-mx
 C7H14,1-heptene C7H15,n-heptyl  C7H16,n-heptane C7H16,2-methylh C8H8,styrene   
 C8H10,ethylbenz C8H16,1-octene  C8H17,n-octyl   C8H18,n-octane  C8H18,isooctane
 C9H19,n-nonyl   C10H8,naphthale C10H21,n-decyl  C12H9,o-bipheny C12H10,biphenyl
 HCCO            HCHO,formaldehy HCOOH           H2O2            (HCOOH)2       
 O3              C(gr)           H2O(cr)         H2O(L)         

 NOTE. WEIGHT FRACTION OF FUEL IN TOTAL FUELS AND OF OXIDANT IN TOTAL OXIDANTS






 WARNING!!  ASSIGNED pip =   0.00000 IS NOT PERMITTED
 TO BE LESS THAN  Pinj/Pc =  1.03021. POINT OMITTED (ROCKET)





              THEORETICAL ROCKET PERFORMANCE ASSUMING EQUILIBRIUM

            COMPOSITION DURING EXPANSION FROM FINITE AREA COMBUSTOR

 Pin =    75.4 PSIA
 Ac/At =  3.6982      Pinj/Pinf =  1.014776
 CASE =                

             REACTANT                    WT FRACTION      ENERGY      TEMP
                                          (SEE NOTE)     KJ/KG-MOL      K  
 OXIDANT     O2                           0.9643349    111914.824   3342.300
 OXIDANT     H2O                          0.0213991    -94534.379   3342.300
 OXIDANT     CO2                          0.0142660   -219351.549   3342.300
 FUEL        PP                           1.0000000    -78826.000    293.150

 O/F=    2.84268  %FUEL= 26.023517  R,EQ.RATIO= 1.240956  PHI,EQ.RATIO= 1.248296

                 INJECTOR  COMB END  THROAT
 Pinj/P            1.0000   1.0302   1.7498
 P, BAR            5.2000   5.0475   2.9717
 T, K             3549.42  3542.61  3397.75
 RHO, KG/CU M    3.6792-1 3.5792-1 2.2358-1
 H, KJ/KG         1871.87  1850.57  1125.31
 U, KJ/KG          458.50   440.32  -203.83
 G, KJ/KG        -44022.7 -43976.5 -42827.9
 S, KJ/(KG)(K)    12.9301  12.9360  12.9360

 M, (1/n)          20.880   20.886   21.255
 (dLV/dLP)t      -1.08727 -1.08725 -1.08322
 (dLV/dLT)p        2.4993   2.5018   2.4978
 Cp, KJ/(KG)(K)   12.3561  12.3897  12.6413
 GAMMAs            1.1287   1.1285   1.1234
 SON VEL,M/SEC     1263.0   1261.5   1221.9
 MACH NUMBER        0.000    0.164    1.000

 PERFORMANCE PARAMETERS

 Ae/At                      3.6982   1.0000
 CSTAR, M/SEC               1875.6   1875.6
 CF                         0.1100   0.6515
 Ivac, M/SEC                7039.0   2309.7
 Isp, M/SEC                  206.4   1221.9


 MOLE FRACTIONS

 *CO              0.30498  0.30488  0.30203
 *CO2             0.08741  0.08763  0.09740
 *H               0.08740  0.08737  0.08077
 HCO              0.00001  0.00001  0.00000
 HO2              0.00008  0.00008  0.00006
 *H2              0.09107  0.09105  0.08933
 H2O              0.21800  0.21828  0.23397
 *O               0.05484  0.05474  0.04861
 *OH              0.10585  0.10561  0.09860
 *O2              0.05036  0.05036  0.04922

  * THERMODYNAMIC PROPERTIES FITTED TO 20000.K

    PRODUCTS WHICH WERE CONSIDERED BUT WHOSE MOLE FRACTIONS
    WERE LESS THAN 5.000000E-06 FOR ALL ASSIGNED CONDITIONS

 *C              *CH             CH2             CH3             CH2OH          
 CH3O            CH4             CH3OH           CH3OOH          COOH           
 *C2             C2H             C2H2,acetylene  C2H2,vinylidene CH2CO,ketene   
 O(CH)2O         HO(CO)2OH       C2H3,vinyl      CH3CO,acetyl    C2H4           
 C2H4O,ethylen-o CH3CHO,ethanal  CH3COOH         OHCH2COOH       C2H5           
 C2H6            C2H5OH          CH3OCH3         CH3O2CH3        C2O            
 *C3             C3H3,1-propynl  C3H3,2-propynl  C3H4,allene     C3H4,propyne   
 C3H4,cyclo-     C3H5,allyl      C3H6,propylene  C3H6,cyclo-     C3H6O,propylox 
 C3H6O,acetone   C3H6O,propanal  C3H7,n-propyl   C3H7,i-propyl   C3H8           
 C3H8O,1propanol C3H8O,2propanol C3O2            *C4             C4H2,butadiyne 
 C4H4,1,3-cyclo- C4H6,butadiene  C4H6,1butyne    C4H6,2butyne    C4H6,cyclo-    
 C4H8,1-butene   C4H8,cis2-buten C4H8,tr2-butene C4H8,isobutene  C4H8,cyclo-    
 (CH3COOH)2      C4H9,n-butyl    C4H9,i-butyl    C4H9,s-butyl    C4H9,t-butyl   
 C4H10,n-butane  C4H10,isobutane *C5             C5H6,1,3cyclo-  C5H8,cyclo-    
 C5H10,1-pentene C5H10,cyclo-    C5H11,pentyl    C5H11,t-pentyl  C5H12,n-pentane
 C5H12,i-pentane CH3C(CH3)2CH3   C6H2            C6H5,phenyl     C6H5O,phenoxy  
 C6H6            C6H5OH,phenol   C6H10,cyclo-    C6H12,1-hexene  C6H12,cyclo-   
 C6H13,n-hexyl   C6H14,n-hexane  C7H7,benzyl     C7H8            C7H8O,cresol-mx
 C7H14,1-heptene C7H15,n-heptyl  C7H16,n-heptane C7H16,2-methylh C8H8,styrene   
 C8H10,ethylbenz C8H16,1-octene  C8H17,n-octyl   C8H18,n-octane  C8H18,isooctane
 C9H19,n-nonyl   C10H8,naphthale C10H21,n-decyl  C12H9,o-bipheny C12H10,biphenyl
 HCCO            HCHO,formaldehy HCOOH           H2O2            (HCOOH)2       
 O3              C(gr)           H2O(cr)         H2O(L)         

 NOTE. WEIGHT FRACTION OF FUEL IN TOTAL FUELS AND OF OXIDANT IN TOTAL OXIDANTS






 WARNING!!  ASSIGNED pip =   0.00000 IS NOT PERMITTED
 TO BE LESS THAN  Pinj/Pc =  1.03021. POINT OMITTED (ROCKET)





              THEORETICAL ROCKET PERFORMANCE ASSUMING EQUILIBRIUM

            COMPOSITION DURING EXPANSION FROM FINITE AREA COMBUSTOR

 Pin =    75.4 PSIA
 Ac/At =  3.6982      Pinj/Pinf =  1.014776
 CASE =                

             REACTANT                    WT FRACTION      ENERGY      TEMP
                                          (SEE NOTE)     KJ/KG-MOL      K  
 OXIDANT     O2                           0.9643349    111914.824   3342.300
 OXIDANT     H2O                          0.0213991    -94534.379   3342.300
 OXIDANT     CO2                          0.0142660   -219351.549   3342.300
 FUEL        PP                           1.0000000    -78826.000    293.150

 O/F=    2.84268  %FUEL= 26.023517  R,EQ.RATIO= 1.240956  PHI,EQ.RATIO= 1.248296

                 INJECTOR  COMB END  THROAT
 Pinj/P            1.0000   1.0302   1.7498
 P, BAR            5.2000   5.0475   2.9717
 T, K             3549.42  3542.61  3397.75
 RHO, KG/CU M    3.6792-1 3.5792-1 2.2358-1
 H, KJ/KG         1871.87  1850.57  1125.31
 U, KJ/KG          458.50   440.32  -203.83
 G, KJ/KG        -44022.7 -43976.5 -42827.9
 S, KJ/(KG)(K)    12.9301  12.9360  12.9360

 M, (1/n)          20.880   20.886   21.255
 (dLV/dLP)t      -1.08727 -1.08725 -1.08322
 (dLV/dLT)p        2.4993   2.5018   2.4978
 Cp, KJ/(KG)(K)   12.3561  12.3897  12.6413
 GAMMAs            1.1287   1.1285   1.1234
 SON VEL,M/SEC     1263.0   1261.5   1221.9
 MACH NUMBER        0.000    0.164    1.000

 PERFORMANCE PARAMETERS

 Ae/At                      3.6982   1.0000
 CSTAR, M/SEC               1875.6   1875.6
 CF                         0.1100   0.6515
 Ivac, M/SEC                7039.0   2309.7
 Isp, M/SEC                  206.4   1221.9


 MOLE FRACTIONS

 *CO              0.30498  0.30488  0.30203
 *CO2             0.08741  0.08763  0.09740
 *H               0.08740  0.08737  0.08077
 HCO              0.00001  0.00001  0.00000
 HO2              0.00008  0.00008  0.00006
 *H2              0.09107  0.09105  0.08933
 H2O              0.21800  0.21828  0.23397
 *O               0.05484  0.05474  0.04861
 *OH              0.10585  0.10561  0.09860
 *O2              0.05036  0.05036  0.04922

  * THERMODYNAMIC PROPERTIES FITTED TO 20000.K

    PRODUCTS WHICH WERE CONSIDERED BUT WHOSE MOLE FRACTIONS
    WERE LESS THAN 5.000000E-06 FOR ALL ASSIGNED CONDITIONS

 *C              *CH             CH2             CH3             CH2OH          
 CH3O            CH4             CH3OH           CH3OOH          COOH           
 *C2             C2H             C2H2,acetylene  C2H2,vinylidene CH2CO,ketene   
 O(CH)2O         HO(CO)2OH       C2H3,vinyl      CH3CO,acetyl    C2H4           
 C2H4O,ethylen-o CH3CHO,ethanal  CH3COOH         OHCH2COOH       C2H5           
 C2H6            C2H5OH          CH3OCH3         CH3O2CH3        C2O            
 *C3             C3H3,1-propynl  C3H3,2-propynl  C3H4,allene     C3H4,propyne   
 C3H4,cyclo-     C3H5,allyl      C3H6,propylene  C3H6,cyclo-     C3H6O,propylox 
 C3H6O,acetone   C3H6O,propanal  C3H7,n-propyl   C3H7,i-propyl   C3H8           
 C3H8O,1propanol C3H8O,2propanol C3O2            *C4             C4H2,butadiyne 
 C4H4,1,3-cyclo- C4H6,butadiene  C4H6,1butyne    C4H6,2butyne    C4H6,cyclo-    
 C4H8,1-butene   C4H8,cis2-buten C4H8,tr2-butene C4H8,isobutene  C4H8,cyclo-    
 (CH3COOH)2      C4H9,n-butyl    C4H9,i-butyl    C4H9,s-butyl    C4H9,t-butyl   
 C4H10,n-butane  C4H10,isobutane *C5             C5H6,1,3cyclo-  C5H8,cyclo-    
 C5H10,1-pentene C5H10,cyclo-    C5H11,pentyl    C5H11,t-pentyl  C5H12,n-pentane
 C5H12,i-pentane CH3C(CH3)2CH3   C6H2            C6H5,phenyl     C6H5O,phenoxy  
 C6H6            C6H5OH,phenol   C6H10,cyclo-    C6H12,1-hexene  C6H12,cyclo-   
 C6H13,n-hexyl   C6H14,n-hexane  C7H7,benzyl     C7H8            C7H8O,cresol-mx
 C7H14,1-heptene C7H15,n-heptyl  C7H16,n-heptane C7H16,2-methylh C8H8,styrene   
 C8H10,ethylbenz C8H16,1-octene  C8H17,n-octyl   C8H18,n-octane  C8H18,isooctane
 C9H19,n-nonyl   C10H8,naphthale C10H21,n-decyl  C12H9,o-bipheny C12H10,biphenyl
 HCCO            HCHO,formaldehy HCOOH           H2O2            (HCOOH)2       
 O3              C(gr)           H2O(cr)         H2O(L)         

 NOTE. WEIGHT FRACTION OF FUEL IN TOTAL FUELS AND OF OXIDANT IN TOTAL OXIDANTS






 WARNING!!  ASSIGNED pip =   0.00000 IS NOT PERMITTED
 TO BE LESS THAN  Pinj/Pc =  1.03021. POINT OMITTED (ROCKET)





              THEORETICAL ROCKET PERFORMANCE ASSUMING EQUILIBRIUM

            COMPOSITION DURING EXPANSION FROM FINITE AREA COMBUSTOR

 Pin =    75.4 PSIA
 Ac/At =  3.6982      Pinj/Pinf =  1.014776
 CASE =                

             REACTANT                    WT FRACTION      ENERGY      TEMP
                                          (SEE NOTE)     KJ/KG-MOL      K  
 OXIDANT     O2                           0.9643349    111914.824   3342.300
 OXIDANT     H2O                          0.0213991    -94534.379   3342.300
 OXIDANT     CO2                          0.0142660   -219351.549   3342.300
 FUEL        PP                           1.0000000    -78826.000    293.150

 O/F=    2.84268  %FUEL= 26.023517  R,EQ.RATIO= 1.240956  PHI,EQ.RATIO= 1.248296

                 INJECTOR  COMB END  THROAT
 Pinj/P            1.0000   1.0302   1.7498
 P, BAR            5.2000   5.0475   2.9717
 T, K             3549.42  3542.61  3397.75
 RHO, KG/CU M    3.6792-1 3.5792-1 2.2358-1
 H, KJ/KG         1871.87  1850.57  1125.31
 U, KJ/KG          458.50   440.32  -203.83
 G, KJ/KG        -44022.7 -43976.5 -42827.9
 S, KJ/(KG)(K)    12.9301  12.9360  12.9360

 M, (1/n)          20.880   20.886   21.255
 (dLV/dLP)t      -1.08727 -1.08725 -1.08322
 (dLV/dLT)p        2.4993   2.5018   2.4978
 Cp, KJ/(KG)(K)   12.3561  12.3897  12.6413
 GAMMAs            1.1287   1.1285   1.1234
 SON VEL,M/SEC     1263.0   1261.5   1221.9
 MACH NUMBER        0.000    0.164    1.000

 PERFORMANCE PARAMETERS

 Ae/At                      3.6982   1.0000
 CSTAR, M/SEC               1875.6   1875.6
 CF                         0.1100   0.6515
 Ivac, M/SEC                7039.0   2309.7
 Isp, M/SEC                  206.4   1221.9


 MOLE FRACTIONS

 *CO              0.30498  0.30488  0.30203
 *CO2             0.08741  0.08763  0.09740
 *H               0.08740  0.08737  0.08077
 HCO              0.00001  0.00001  0.00000
 HO2              0.00008  0.00008  0.00006
 *H2              0.09107  0.09105  0.08933
 H2O              0.21800  0.21828  0.23397
 *O               0.05484  0.05474  0.04861
 *OH              0.10585  0.10561  0.09860
 *O2              0.05036  0.05036  0.04922

  * THERMODYNAMIC PROPERTIES FITTED TO 20000.K

    PRODUCTS WHICH WERE CONSIDERED BUT WHOSE MOLE FRACTIONS
    WERE LESS THAN 5.000000E-06 FOR ALL ASSIGNED CONDITIONS

 *C              *CH             CH2             CH3             CH2OH          
 CH3O            CH4             CH3OH           CH3OOH          COOH           
 *C2             C2H             C2H2,acetylene  C2H2,vinylidene CH2CO,ketene   
 O(CH)2O         HO(CO)2OH       C2H3,vinyl      CH3CO,acetyl    C2H4           
 C2H4O,ethylen-o CH3CHO,ethanal  CH3COOH         OHCH2COOH       C2H5           
 C2H6            C2H5OH          CH3OCH3         CH3O2CH3        C2O            
 *C3             C3H3,1-propynl  C3H3,2-propynl  C3H4,allene     C3H4,propyne   
 C3H4,cyclo-     C3H5,allyl      C3H6,propylene  C3H6,cyclo-     C3H6O,propylox 
 C3H6O,acetone   C3H6O,propanal  C3H7,n-propyl   C3H7,i-propyl   C3H8           
 C3H8O,1propanol C3H8O,2propanol C3O2            *C4             C4H2,butadiyne 
 C4H4,1,3-cyclo- C4H6,butadiene  C4H6,1butyne    C4H6,2butyne    C4H6,cyclo-    
 C4H8,1-butene   C4H8,cis2-buten C4H8,tr2-butene C4H8,isobutene  C4H8,cyclo-    
 (CH3COOH)2      C4H9,n-butyl    C4H9,i-butyl    C4H9,s-butyl    C4H9,t-butyl   
 C4H10,n-butane  C4H10,isobutane *C5             C5H6,1,3cyclo-  C5H8,cyclo-    
 C5H10,1-pentene C5H10,cyclo-    C5H11,pentyl    C5H11,t-pentyl  C5H12,n-pentane
 C5H12,i-pentane CH3C(CH3)2CH3   C6H2            C6H5,phenyl     C6H5O,phenoxy  
 C6H6            C6H5OH,phenol   C6H10,cyclo-    C6H12,1-hexene  C6H12,cyclo-   
 C6H13,n-hexyl   C6H14,n-hexane  C7H7,benzyl     C7H8            C7H8O,cresol-mx
 C7H14,1-heptene C7H15,n-heptyl  C7H16,n-heptane C7H16,2-methylh C8H8,styrene   
 C8H10,ethylbenz C8H16,1-octene  C8H17,n-octyl   C8H18,n-octane  C8H18,isooctane
 C9H19,n-nonyl   C10H8,naphthale C10H21,n-decyl  C12H9,o-bipheny C12H10,biphenyl
 HCCO            HCHO,formaldehy HCOOH           H2O2            (HCOOH)2       
 O3              C(gr)           H2O(cr)         H2O(L)         

 NOTE. WEIGHT FRACTION OF FUEL IN TOTAL FUELS AND OF OXIDANT IN TOTAL OXIDANTS






 WARNING!!  ASSIGNED pip =   0.00000 IS NOT PERMITTED
 TO BE LESS THAN  Pinj/Pc =  1.03021. POINT OMITTED (ROCKET)





              THEORETICAL ROCKET PERFORMANCE ASSUMING EQUILIBRIUM

            COMPOSITION DURING EXPANSION FROM FINITE AREA COMBUSTOR

 Pin =    75.4 PSIA
 Ac/At =  3.6982      Pinj/Pinf =  1.014776
 CASE =                

             REACTANT                    WT FRACTION      ENERGY      TEMP
                                          (SEE NOTE)     KJ/KG-MOL      K  
 OXIDANT     O2                           0.9643349    111914.824   3342.300
 OXIDANT     H2O                          0.0213991    -94534.379   3342.300
 OXIDANT     CO2                          0.0142660   -219351.549   3342.300
 FUEL        PP                           1.0000000    -78826.000    293.150

 O/F=    2.84268  %FUEL= 26.023517  R,EQ.RATIO= 1.240956  PHI,EQ.RATIO= 1.248296

                 INJECTOR  COMB END  THROAT
 Pinj/P            1.0000   1.0302   1.7498
 P, BAR            5.2000   5.0475   2.9717
 T, K             3549.42  3542.61  3397.75
 RHO, KG/CU M    3.6792-1 3.5792-1 2.2358-1
 H, KJ/KG         1871.87  1850.57  1125.31
 U, KJ/KG          458.50   440.32  -203.83
 G, KJ/KG        -44022.7 -43976.5 -42827.9
 S, KJ/(KG)(K)    12.9301  12.9360  12.9360

 M, (1/n)          20.880   20.886   21.255
 (dLV/dLP)t      -1.08727 -1.08725 -1.08322
 (dLV/dLT)p        2.4993   2.5018   2.4978
 Cp, KJ/(KG)(K)   12.3561  12.3897  12.6413
 GAMMAs            1.1287   1.1285   1.1234
 SON VEL,M/SEC     1263.0   1261.5   1221.9
 MACH NUMBER        0.000    0.164    1.000

 PERFORMANCE PARAMETERS

 Ae/At                      3.6982   1.0000
 CSTAR, M/SEC               1875.6   1875.6
 CF                         0.1100   0.6515
 Ivac, M/SEC                7039.0   2309.7
 Isp, M/SEC                  206.4   1221.9


 MOLE FRACTIONS

 *CO              0.30498  0.30488  0.30203
 *CO2             0.08741  0.08763  0.09740
 *H               0.08740  0.08737  0.08077
 HCO              0.00001  0.00001  0.00000
 HO2              0.00008  0.00008  0.00006
 *H2              0.09107  0.09105  0.08933
 H2O              0.21800  0.21828  0.23397
 *O               0.05484  0.05474  0.04861
 *OH              0.10585  0.10561  0.09860
 *O2              0.05036  0.05036  0.04922

  * THERMODYNAMIC PROPERTIES FITTED TO 20000.K

    PRODUCTS WHICH WERE CONSIDERED BUT WHOSE MOLE FRACTIONS
    WERE LESS THAN 5.000000E-06 FOR ALL ASSIGNED CONDITIONS

 *C              *CH             CH2             CH3             CH2OH          
 CH3O            CH4             CH3OH           CH3OOH          COOH           
 *C2             C2H             C2H2,acetylene  C2H2,vinylidene CH2CO,ketene   
 O(CH)2O         HO(CO)2OH       C2H3,vinyl      CH3CO,acetyl    C2H4           
 C2H4O,ethylen-o CH3CHO,ethanal  CH3COOH         OHCH2COOH       C2H5           
 C2H6            C2H5OH          CH3OCH3         CH3O2CH3        C2O            
 *C3             C3H3,1-propynl  C3H3,2-propynl  C3H4,allene     C3H4,propyne   
 C3H4,cyclo-     C3H5,allyl      C3H6,propylene  C3H6,cyclo-     C3H6O,propylox 
 C3H6O,acetone   C3H6O,propanal  C3H7,n-propyl   C3H7,i-propyl   C3H8           
 C3H8O,1propanol C3H8O,2propanol C3O2            *C4             C4H2,butadiyne 
 C4H4,1,3-cyclo- C4H6,butadiene  C4H6,1butyne    C4H6,2butyne    C4H6,cyclo-    
 C4H8,1-butene   C4H8,cis2-buten C4H8,tr2-butene C4H8,isobutene  C4H8,cyclo-    
 (CH3COOH)2      C4H9,n-butyl    C4H9,i-butyl    C4H9,s-butyl    C4H9,t-butyl   
 C4H10,n-butane  C4H10,isobutane *C5             C5H6,1,3cyclo-  C5H8,cyclo-    
 C5H10,1-pentene C5H10,cyclo-    C5H11,pentyl    C5H11,t-pentyl  C5H12,n-pentane
 C5H12,i-pentane CH3C(CH3)2CH3   C6H2            C6H5,phenyl     C6H5O,phenoxy  
 C6H6            C6H5OH,phenol   C6H10,cyclo-    C6H12,1-hexene  C6H12,cyclo-   
 C6H13,n-hexyl   C6H14,n-hexane  C7H7,benzyl     C7H8            C7H8O,cresol-mx
 C7H14,1-heptene C7H15,n-heptyl  C7H16,n-heptane C7H16,2-methylh C8H8,styrene   
 C8H10,ethylbenz C8H16,1-octene  C8H17,n-octyl   C8H18,n-octane  C8H18,isooctane
 C9H19,n-nonyl   C10H8,naphthale C10H21,n-decyl  C12H9,o-bipheny C12H10,biphenyl
 HCCO            HCHO,formaldehy HCOOH           H2O2            (HCOOH)2       
 O3              C(gr)           H2O(cr)         H2O(L)         

 NOTE. WEIGHT FRACTION OF FUEL IN TOTAL FUELS AND OF OXIDANT IN TOTAL OXIDANTS






 WARNING!!  ASSIGNED pip =   0.00000 IS NOT PERMITTED
 TO BE LESS THAN  Pinj/Pc =  1.03021. POINT OMITTED (ROCKET)





              THEORETICAL ROCKET PERFORMANCE ASSUMING EQUILIBRIUM

            COMPOSITION DURING EXPANSION FROM FINITE AREA COMBUSTOR

 Pin =    75.4 PSIA
 Ac/At =  3.6982      Pinj/Pinf =  1.014776
 CASE =                

             REACTANT                    WT FRACTION      ENERGY      TEMP
                                          (SEE NOTE)     KJ/KG-MOL      K  
 OXIDANT     O2                           0.9643349    111914.824   3342.300
 OXIDANT     H2O                          0.0213991    -94534.379   3342.300
 OXIDANT     CO2                          0.0142660   -219351.549   3342.300
 FUEL        PP                           1.0000000    -78826.000    293.150

 O/F=    2.84268  %FUEL= 26.023517  R,EQ.RATIO= 1.240956  PHI,EQ.RATIO= 1.248296

                 INJECTOR  COMB END  THROAT
 Pinj/P            1.0000   1.0302   1.7498
 P, BAR            5.2000   5.0475   2.9717
 T, K             3549.42  3542.61  3397.75
 RHO, KG/CU M    3.6792-1 3.5792-1 2.2358-1
 H, KJ/KG         1871.87  1850.57  1125.31
 U, KJ/KG          458.50   440.32  -203.83
 G, KJ/KG        -44022.7 -43976.5 -42827.9
 S, KJ/(KG)(K)    12.9301  12.9360  12.9360

 M, (1/n)          20.880   20.886   21.255
 (dLV/dLP)t      -1.08727 -1.08725 -1.08322
 (dLV/dLT)p        2.4993   2.5018   2.4978
 Cp, KJ/(KG)(K)   12.3561  12.3897  12.6413
 GAMMAs            1.1287   1.1285   1.1234
 SON VEL,M/SEC     1263.0   1261.5   1221.9
 MACH NUMBER        0.000    0.164    1.000

 PERFORMANCE PARAMETERS

 Ae/At                      3.6982   1.0000
 CSTAR, M/SEC               1875.6   1875.6
 CF                         0.1100   0.6515
 Ivac, M/SEC                7039.0   2309.7
 Isp, M/SEC                  206.4   1221.9


 MOLE FRACTIONS

 *CO              0.30498  0.30488  0.30203
 *CO2             0.08741  0.08763  0.09740
 *H               0.08740  0.08737  0.08077
 HCO              0.00001  0.00001  0.00000
 HO2              0.00008  0.00008  0.00006
 *H2              0.09107  0.09105  0.08933
 H2O              0.21800  0.21828  0.23397
 *O               0.05484  0.05474  0.04861
 *OH              0.10585  0.10561  0.09860
 *O2              0.05036  0.05036  0.04922

  * THERMODYNAMIC PROPERTIES FITTED TO 20000.K

    PRODUCTS WHICH WERE CONSIDERED BUT WHOSE MOLE FRACTIONS
    WERE LESS THAN 5.000000E-06 FOR ALL ASSIGNED CONDITIONS

 *C              *CH             CH2             CH3             CH2OH          
 CH3O            CH4             CH3OH           CH3OOH          COOH           
 *C2             C2H             C2H2,acetylene  C2H2,vinylidene CH2CO,ketene   
 O(CH)2O         HO(CO)2OH       C2H3,vinyl      CH3CO,acetyl    C2H4           
 C2H4O,ethylen-o CH3CHO,ethanal  CH3COOH         OHCH2COOH       C2H5           
 C2H6            C2H5OH          CH3OCH3         CH3O2CH3        C2O            
 *C3             C3H3,1-propynl  C3H3,2-propynl  C3H4,allene     C3H4,propyne   
 C3H4,cyclo-     C3H5,allyl      C3H6,propylene  C3H6,cyclo-     C3H6O,propylox 
 C3H6O,acetone   C3H6O,propanal  C3H7,n-propyl   C3H7,i-propyl   C3H8           
 C3H8O,1propanol C3H8O,2propanol C3O2            *C4             C4H2,butadiyne 
 C4H4,1,3-cyclo- C4H6,butadiene  C4H6,1butyne    C4H6,2butyne    C4H6,cyclo-    
 C4H8,1-butene   C4H8,cis2-buten C4H8,tr2-butene C4H8,isobutene  C4H8,cyclo-    
 (CH3COOH)2      C4H9,n-butyl    C4H9,i-butyl    C4H9,s-butyl    C4H9,t-butyl   
 C4H10,n-butane  C4H10,isobutane *C5             C5H6,1,3cyclo-  C5H8,cyclo-    
 C5H10,1-pentene C5H10,cyclo-    C5H11,pentyl    C5H11,t-pentyl  C5H12,n-pentane
 C5H12,i-pentane CH3C(CH3)2CH3   C6H2            C6H5,phenyl     C6H5O,phenoxy  
 C6H6            C6H5OH,phenol   C6H10,cyclo-    C6H12,1-hexene  C6H12,cyclo-   
 C6H13,n-hexyl   C6H14,n-hexane  C7H7,benzyl     C7H8            C7H8O,cresol-mx
 C7H14,1-heptene C7H15,n-heptyl  C7H16,n-heptane C7H16,2-methylh C8H8,styrene   
 C8H10,ethylbenz C8H16,1-octene  C8H17,n-octyl   C8H18,n-octane  C8H18,isooctane
 C9H19,n-nonyl   C10H8,naphthale C10H21,n-decyl  C12H9,o-bipheny C12H10,biphenyl
 HCCO            HCHO,formaldehy HCOOH           H2O2            (HCOOH)2       
 O3              C(gr)           H2O(cr)         H2O(L)         

 NOTE. WEIGHT FRACTION OF FUEL IN TOTAL FUELS AND OF OXIDANT IN TOTAL OXIDANTS






 WARNING!!  ASSIGNED pip =   0.00000 IS NOT PERMITTED
 TO BE LESS THAN  Pinj/Pc =  1.03021. POINT OMITTED (ROCKET)





              THEORETICAL ROCKET PERFORMANCE ASSUMING EQUILIBRIUM

            COMPOSITION DURING EXPANSION FROM FINITE AREA COMBUSTOR

 Pin =    75.4 PSIA
 Ac/At =  3.6982      Pinj/Pinf =  1.014776
 CASE =                

             REACTANT                    WT FRACTION      ENERGY      TEMP
                                          (SEE NOTE)     KJ/KG-MOL      K  
 OXIDANT     O2                           0.9643349    111914.824   3342.300
 OXIDANT     H2O                          0.0213991    -94534.379   3342.300
 OXIDANT     CO2                          0.0142660   -219351.549   3342.300
 FUEL        PP                           1.0000000    -78826.000    293.150

 O/F=    2.84268  %FUEL= 26.023517  R,EQ.RATIO= 1.240956  PHI,EQ.RATIO= 1.248296

                 INJECTOR  COMB END  THROAT
 Pinj/P            1.0000   1.0302   1.7498
 P, BAR            5.2000   5.0475   2.9717
 T, K             3549.42  3542.61  3397.75
 RHO, KG/CU M    3.6792-1 3.5792-1 2.2358-1
 H, KJ/KG         1871.87  1850.57  1125.31
 U, KJ/KG          458.50   440.32  -203.83
 G, KJ/KG        -44022.7 -43976.5 -42827.9
 S, KJ/(KG)(K)    12.9301  12.9360  12.9360

 M, (1/n)          20.880   20.886   21.255
 (dLV/dLP)t      -1.08727 -1.08725 -1.08322
 (dLV/dLT)p        2.4993   2.5018   2.4978
 Cp, KJ/(KG)(K)   12.3561  12.3897  12.6413
 GAMMAs            1.1287   1.1285   1.1234
 SON VEL,M/SEC     1263.0   1261.5   1221.9
 MACH NUMBER        0.000    0.164    1.000

 PERFORMANCE PARAMETERS

 Ae/At                      3.6982   1.0000
 CSTAR, M/SEC               1875.6   1875.6
 CF                         0.1100   0.6515
 Ivac, M/SEC                7039.0   2309.7
 Isp, M/SEC                  206.4   1221.9


 MOLE FRACTIONS

 *CO              0.30498  0.30488  0.30203
 *CO2             0.08741  0.08763  0.09740
 *H               0.08740  0.08737  0.08077
 HCO              0.00001  0.00001  0.00000
 HO2              0.00008  0.00008  0.00006
 *H2              0.09107  0.09105  0.08933
 H2O              0.21800  0.21828  0.23397
 *O               0.05484  0.05474  0.04861
 *OH              0.10585  0.10561  0.09860
 *O2              0.05036  0.05036  0.04922

  * THERMODYNAMIC PROPERTIES FITTED TO 20000.K

    PRODUCTS WHICH WERE CONSIDERED BUT WHOSE MOLE FRACTIONS
    WERE LESS THAN 5.000000E-06 FOR ALL ASSIGNED CONDITIONS

 *C              *CH             CH2             CH3             CH2OH          
 CH3O            CH4             CH3OH           CH3OOH          COOH           
 *C2             C2H             C2H2,acetylene  C2H2,vinylidene CH2CO,ketene   
 O(CH)2O         HO(CO)2OH       C2H3,vinyl      CH3CO,acetyl    C2H4           
 C2H4O,ethylen-o CH3CHO,ethanal  CH3COOH         OHCH2COOH       C2H5           
 C2H6            C2H5OH          CH3OCH3         CH3O2CH3        C2O            
 *C3             C3H3,1-propynl  C3H3,2-propynl  C3H4,allene     C3H4,propyne   
 C3H4,cyclo-     C3H5,allyl      C3H6,propylene  C3H6,cyclo-     C3H6O,propylox 
 C3H6O,acetone   C3H6O,propanal  C3H7,n-propyl   C3H7,i-propyl   C3H8           
 C3H8O,1propanol C3H8O,2propanol C3O2            *C4             C4H2,butadiyne 
 C4H4,1,3-cyclo- C4H6,butadiene  C4H6,1butyne    C4H6,2butyne    C4H6,cyclo-    
 C4H8,1-butene   C4H8,cis2-buten C4H8,tr2-butene C4H8,isobutene  C4H8,cyclo-    
 (CH3COOH)2      C4H9,n-butyl    C4H9,i-butyl    C4H9,s-butyl    C4H9,t-butyl   
 C4H10,n-butane  C4H10,isobutane *C5             C5H6,1,3cyclo-  C5H8,cyclo-    
 C5H10,1-pentene C5H10,cyclo-    C5H11,pentyl    C5H11,t-pentyl  C5H12,n-pentane
 C5H12,i-pentane CH3C(CH3)2CH3   C6H2            C6H5,phenyl     C6H5O,phenoxy  
 C6H6            C6H5OH,phenol   C6H10,cyclo-    C6H12,1-hexene  C6H12,cyclo-   
 C6H13,n-hexyl   C6H14,n-hexane  C7H7,benzyl     C7H8            C7H8O,cresol-mx
 C7H14,1-heptene C7H15,n-heptyl  C7H16,n-heptane C7H16,2-methylh C8H8,styrene   
 C8H10,ethylbenz C8H16,1-octene  C8H17,n-octyl   C8H18,n-octane  C8H18,isooctane
 C9H19,n-nonyl   C10H8,naphthale C10H21,n-decyl  C12H9,o-bipheny C12H10,biphenyl
 HCCO            HCHO,formaldehy HCOOH           H2O2            (HCOOH)2       
 O3              C(gr)           H2O(cr)         H2O(L)         

 NOTE. WEIGHT FRACTION OF FUEL IN TOTAL FUELS AND OF OXIDANT IN TOTAL OXIDANTS






 WARNING!!  ASSIGNED pip =   0.00000 IS NOT PERMITTED
 TO BE LESS THAN  Pinj/Pc =  1.03021. POINT OMITTED (ROCKET)





              THEORETICAL ROCKET PERFORMANCE ASSUMING EQUILIBRIUM

            COMPOSITION DURING EXPANSION FROM FINITE AREA COMBUSTOR

 Pin =    75.4 PSIA
 Ac/At =  3.6982      Pinj/Pinf =  1.014776
 CASE =                

             REACTANT                    WT FRACTION      ENERGY      TEMP
                                          (SEE NOTE)     KJ/KG-MOL      K  
 OXIDANT     O2                           0.9643349    111914.824   3342.300
 OXIDANT     H2O                          0.0213991    -94534.379   3342.300
 OXIDANT     CO2                          0.0142660   -219351.549   3342.300
 FUEL        PP                           1.0000000    -78826.000    293.150

 O/F=    2.84268  %FUEL= 26.023517  R,EQ.RATIO= 1.240956  PHI,EQ.RATIO= 1.248296

                 INJECTOR  COMB END  THROAT
 Pinj/P            1.0000   1.0302   1.7498
 P, BAR            5.2000   5.0475   2.9717
 T, K             3549.42  3542.61  3397.75
 RHO, KG/CU M    3.6792-1 3.5792-1 2.2358-1
 H, KJ/KG         1871.87  1850.57  1125.31
 U, KJ/KG          458.50   440.32  -203.83
 G, KJ/KG        -44022.7 -43976.5 -42827.9
 S, KJ/(KG)(K)    12.9301  12.9360  12.9360

 M, (1/n)          20.880   20.886   21.255
 (dLV/dLP)t      -1.08727 -1.08725 -1.08322
 (dLV/dLT)p        2.4993   2.5018   2.4978
 Cp, KJ/(KG)(K)   12.3561  12.3897  12.6413
 GAMMAs            1.1287   1.1285   1.1234
 SON VEL,M/SEC     1263.0   1261.5   1221.9
 MACH NUMBER        0.000    0.164    1.000

 PERFORMANCE PARAMETERS

 Ae/At                      3.6982   1.0000
 CSTAR, M/SEC               1875.6   1875.6
 CF                         0.1100   0.6515
 Ivac, M/SEC                7039.0   2309.7
 Isp, M/SEC                  206.4   1221.9


 MOLE FRACTIONS

 *CO              0.30498  0.30488  0.30203
 *CO2             0.08741  0.08763  0.09740
 *H               0.08740  0.08737  0.08077
 HCO              0.00001  0.00001  0.00000
 HO2              0.00008  0.00008  0.00006
 *H2              0.09107  0.09105  0.08933
 H2O              0.21800  0.21828  0.23397
 *O               0.05484  0.05474  0.04861
 *OH              0.10585  0.10561  0.09860
 *O2              0.05036  0.05036  0.04922

  * THERMODYNAMIC PROPERTIES FITTED TO 20000.K

    PRODUCTS WHICH WERE CONSIDERED BUT WHOSE MOLE FRACTIONS
    WERE LESS THAN 5.000000E-06 FOR ALL ASSIGNED CONDITIONS

 *C              *CH             CH2             CH3             CH2OH          
 CH3O            CH4             CH3OH           CH3OOH          COOH           
 *C2             C2H             C2H2,acetylene  C2H2,vinylidene CH2CO,ketene   
 O(CH)2O         HO(CO)2OH       C2H3,vinyl      CH3CO,acetyl    C2H4           
 C2H4O,ethylen-o CH3CHO,ethanal  CH3COOH         OHCH2COOH       C2H5           
 C2H6            C2H5OH          CH3OCH3         CH3O2CH3        C2O            
 *C3             C3H3,1-propynl  C3H3,2-propynl  C3H4,allene     C3H4,propyne   
 C3H4,cyclo-     C3H5,allyl      C3H6,propylene  C3H6,cyclo-     C3H6O,propylox 
 C3H6O,acetone   C3H6O,propanal  C3H7,n-propyl   C3H7,i-propyl   C3H8           
 C3H8O,1propanol C3H8O,2propanol C3O2            *C4             C4H2,butadiyne 
 C4H4,1,3-cyclo- C4H6,butadiene  C4H6,1butyne    C4H6,2butyne    C4H6,cyclo-    
 C4H8,1-butene   C4H8,cis2-buten C4H8,tr2-butene C4H8,isobutene  C4H8,cyclo-    
 (CH3COOH)2      C4H9,n-butyl    C4H9,i-butyl    C4H9,s-butyl    C4H9,t-butyl   
 C4H10,n-butane  C4H10,isobutane *C5             C5H6,1,3cyclo-  C5H8,cyclo-    
 C5H10,1-pentene C5H10,cyclo-    C5H11,pentyl    C5H11,t-pentyl  C5H12,n-pentane
 C5H12,i-pentane CH3C(CH3)2CH3   C6H2            C6H5,phenyl     C6H5O,phenoxy  
 C6H6            C6H5OH,phenol   C6H10,cyclo-    C6H12,1-hexene  C6H12,cyclo-   
 C6H13,n-hexyl   C6H14,n-hexane  C7H7,benzyl     C7H8            C7H8O,cresol-mx
 C7H14,1-heptene C7H15,n-heptyl  C7H16,n-heptane C7H16,2-methylh C8H8,styrene   
 C8H10,ethylbenz C8H16,1-octene  C8H17,n-octyl   C8H18,n-octane  C8H18,isooctane
 C9H19,n-nonyl   C10H8,naphthale C10H21,n-decyl  C12H9,o-bipheny C12H10,biphenyl
 HCCO            HCHO,formaldehy HCOOH           H2O2            (HCOOH)2       
 O3              C(gr)           H2O(cr)         H2O(L)         

 NOTE. WEIGHT FRACTION OF FUEL IN TOTAL FUELS AND OF OXIDANT IN TOTAL OXIDANTS






 WARNING!!  ASSIGNED pip =   0.00000 IS NOT PERMITTED
 TO BE LESS THAN  Pinj/Pc =  1.03021. POINT OMITTED (ROCKET)





              THEORETICAL ROCKET PERFORMANCE ASSUMING EQUILIBRIUM

            COMPOSITION DURING EXPANSION FROM FINITE AREA COMBUSTOR

 Pin =    75.4 PSIA
 Ac/At =  3.6982      Pinj/Pinf =  1.014776
 CASE =                

             REACTANT                    WT FRACTION      ENERGY      TEMP
                                          (SEE NOTE)     KJ/KG-MOL      K  
 OXIDANT     O2                           0.9643349    111914.824   3342.300
 OXIDANT     H2O                          0.0213991    -94534.379   3342.300
 OXIDANT     CO2                          0.0142660   -219351.549   3342.300
 FUEL        PP                           1.0000000    -78826.000    293.150

 O/F=    2.84268  %FUEL= 26.023517  R,EQ.RATIO= 1.240956  PHI,EQ.RATIO= 1.248296

                 INJECTOR  COMB END  THROAT
 Pinj/P            1.0000   1.0302   1.7498
 P, BAR            5.2000   5.0475   2.9717
 T, K             3549.42  3542.61  3397.75
 RHO, KG/CU M    3.6792-1 3.5792-1 2.2358-1
 H, KJ/KG         1871.87  1850.57  1125.31
 U, KJ/KG          458.50   440.32  -203.83
 G, KJ/KG        -44022.7 -43976.5 -42827.9
 S, KJ/(KG)(K)    12.9301  12.9360  12.9360

 M, (1/n)          20.880   20.886   21.255
 (dLV/dLP)t      -1.08727 -1.08725 -1.08322
 (dLV/dLT)p        2.4993   2.5018   2.4978
 Cp, KJ/(KG)(K)   12.3561  12.3897  12.6413
 GAMMAs            1.1287   1.1285   1.1234
 SON VEL,M/SEC     1263.0   1261.5   1221.9
 MACH NUMBER        0.000    0.164    1.000

 PERFORMANCE PARAMETERS

 Ae/At                      3.6982   1.0000
 CSTAR, M/SEC               1875.6   1875.6
 CF                         0.1100   0.6515
 Ivac, M/SEC                7039.0   2309.7
 Isp, M/SEC                  206.4   1221.9


 MOLE FRACTIONS

 *CO              0.30498  0.30488  0.30203
 *CO2             0.08741  0.08763  0.09740
 *H               0.08740  0.08737  0.08077
 HCO              0.00001  0.00001  0.00000
 HO2              0.00008  0.00008  0.00006
 *H2              0.09107  0.09105  0.08933
 H2O              0.21800  0.21828  0.23397
 *O               0.05484  0.05474  0.04861
 *OH              0.10585  0.10561  0.09860
 *O2              0.05036  0.05036  0.04922

  * THERMODYNAMIC PROPERTIES FITTED TO 20000.K

    PRODUCTS WHICH WERE CONSIDERED BUT WHOSE MOLE FRACTIONS
    WERE LESS THAN 5.000000E-06 FOR ALL ASSIGNED CONDITIONS

 *C              *CH             CH2             CH3             CH2OH          
 CH3O            CH4             CH3OH           CH3OOH          COOH           
 *C2             C2H             C2H2,acetylene  C2H2,vinylidene CH2CO,ketene   
 O(CH)2O         HO(CO)2OH       C2H3,vinyl      CH3CO,acetyl    C2H4           
 C2H4O,ethylen-o CH3CHO,ethanal  CH3COOH         OHCH2COOH       C2H5           
 C2H6            C2H5OH          CH3OCH3         CH3O2CH3        C2O            
 *C3             C3H3,1-propynl  C3H3,2-propynl  C3H4,allene     C3H4,propyne   
 C3H4,cyclo-     C3H5,allyl      C3H6,propylene  C3H6,cyclo-     C3H6O,propylox 
 C3H6O,acetone   C3H6O,propanal  C3H7,n-propyl   C3H7,i-propyl   C3H8           
 C3H8O,1propanol C3H8O,2propanol C3O2            *C4             C4H2,butadiyne 
 C4H4,1,3-cyclo- C4H6,butadiene  C4H6,1butyne    C4H6,2butyne    C4H6,cyclo-    
 C4H8,1-butene   C4H8,cis2-buten C4H8,tr2-butene C4H8,isobutene  C4H8,cyclo-    
 (CH3COOH)2      C4H9,n-butyl    C4H9,i-butyl    C4H9,s-butyl    C4H9,t-butyl   
 C4H10,n-butane  C4H10,isobutane *C5             C5H6,1,3cyclo-  C5H8,cyclo-    
 C5H10,1-pentene C5H10,cyclo-    C5H11,pentyl    C5H11,t-pentyl  C5H12,n-pentane
 C5H12,i-pentane CH3C(CH3)2CH3   C6H2            C6H5,phenyl     C6H5O,phenoxy  
 C6H6            C6H5OH,phenol   C6H10,cyclo-    C6H12,1-hexene  C6H12,cyclo-   
 C6H13,n-hexyl   C6H14,n-hexane  C7H7,benzyl     C7H8            C7H8O,cresol-mx
 C7H14,1-heptene C7H15,n-heptyl  C7H16,n-heptane C7H16,2-methylh C8H8,styrene   
 C8H10,ethylbenz C8H16,1-octene  C8H17,n-octyl   C8H18,n-octane  C8H18,isooctane
 C9H19,n-nonyl   C10H8,naphthale C10H21,n-decyl  C12H9,o-bipheny C12H10,biphenyl
 HCCO            HCHO,formaldehy HCOOH           H2O2            (HCOOH)2       
 O3              C(gr)           H2O(cr)         H2O(L)         

 NOTE. WEIGHT FRACTION OF FUEL IN TOTAL FUELS AND OF OXIDANT IN TOTAL OXIDANTS





   4    6    2179.314     -19.706     -13.948     -21.368





              THEORETICAL ROCKET PERFORMANCE ASSUMING EQUILIBRIUM

            COMPOSITION DURING EXPANSION FROM FINITE AREA COMBUSTOR

 Pin =    75.4 PSIA
 Ac/At =  3.6982      Pinj/Pinf =  1.014776
 CASE =                

             REACTANT                    WT FRACTION      ENERGY      TEMP
                                          (SEE NOTE)     KJ/KG-MOL      K  
 OXIDANT     O2                           0.9643349    111914.824   3342.300
 OXIDANT     H2O                          0.0213991    -94534.379   3342.300
 OXIDANT     CO2                          0.0142660   -219351.549   3342.300
 FUEL        PP                           1.0000000    -78826.000    293.150

 O/F=    2.84268  %FUEL= 26.023517  R,EQ.RATIO= 1.240956  PHI,EQ.RATIO= 1.248296

                 INJECTOR  COMB END  THROAT     EXIT
 Pinj/P            1.0000   1.0302   1.7498  1263.05
 P, BAR            5.2000   5.0475   2.9717  0.00412
 T, K             3549.42  3542.61  3397.75  2179.31
 RHO, KG/CU M    3.6792-1 3.5792-1 2.2358-1 5.7629-4
 H, KJ/KG         1871.87  1850.57  1125.31 -5312.45
 U, KJ/KG          458.50   440.32  -203.83 -6026.86
 G, KJ/KG        -44022.7 -43976.5 -42827.9 -33504.0
 S, KJ/(KG)(K)    12.9301  12.9360  12.9360  12.9360

 M, (1/n)          20.880   20.886   21.255   25.364
 (dLV/dLP)t      -1.08727 -1.08725 -1.08322 -1.01925
 (dLV/dLT)p        2.4993   2.5018   2.4978   1.5506
 Cp, KJ/(KG)(K)   12.3561  12.3897  12.6413   7.1622
 GAMMAs            1.1287   1.1285   1.1234   1.0999
 SON VEL,M/SEC     1263.0   1261.5   1221.9    886.4
 MACH NUMBER        0.000    0.164    1.000    4.276

 PERFORMANCE PARAMETERS

 Ae/At                      3.6982   1.0000   125.07
 CSTAR, M/SEC               1875.6   1875.6   1875.6
 CF                         0.1100   0.6515   2.0210
 Ivac, M/SEC                7039.0   2309.7   3979.1
 Isp, M/SEC                  206.4   1221.9   3790.6


 MOLE FRACTIONS

 *CO              0.30498  0.30488  0.30203  0.22768
 *CO2             0.08741  0.08763  0.09740  0.24898
 *H               0.08740  0.08737  0.08077  0.02078
 HCO              0.00001  0.00001  0.00000  0.00000
 HO2              0.00008  0.00008  0.00006  0.00000
 *H2              0.09107  0.09105  0.08933  0.07071
 H2O              0.21800  0.21828  0.23397  0.40282
 *O               0.05484  0.05474  0.04861  0.00327
 *OH              0.10585  0.10561  0.09860  0.01789
 *O2              0.05036  0.05036  0.04922  0.00788

  * THERMODYNAMIC PROPERTIES FITTED TO 20000.K

    PRODUCTS WHICH WERE CONSIDERED BUT WHOSE MOLE FRACTIONS
    WERE LESS THAN 5.000000E-06 FOR ALL ASSIGNED CONDITIONS

 *C              *CH             CH2             CH3             CH2OH          
 CH3O            CH4             CH3OH           CH3OOH          COOH           
 *C2             C2H             C2H2,acetylene  C2H2,vinylidene CH2CO,ketene   
 O(CH)2O         HO(CO)2OH       C2H3,vinyl      CH3CO,acetyl    C2H4           
 C2H4O,ethylen-o CH3CHO,ethanal  CH3COOH         OHCH2COOH       C2H5           
 C2H6            C2H5OH          CH3OCH3         CH3O2CH3        C2O            
 *C3             C3H3,1-propynl  C3H3,2-propynl  C3H4,allene     C3H4,propyne   
 C3H4,cyclo-     C3H5,allyl      C3H6,propylene  C3H6,cyclo-     C3H6O,propylox 
 C3H6O,acetone   C3H6O,propanal  C3H7,n-propyl   C3H7,i-propyl   C3H8           
 C3H8O,1propanol C3H8O,2propanol C3O2            *C4             C4H2,butadiyne 
 C4H4,1,3-cyclo- C4H6,butadiene  C4H6,1butyne    C4H6,2butyne    C4H6,cyclo-    
 C4H8,1-butene   C4H8,cis2-buten C4H8,tr2-butene C4H8,isobutene  C4H8,cyclo-    
 (CH3COOH)2      C4H9,n-butyl    C4H9,i-butyl    C4H9,s-butyl    C4H9,t-butyl   
 C4H10,n-butane  C4H10,isobutane *C5             C5H6,1,3cyclo-  C5H8,cyclo-    
 C5H10,1-pentene C5H10,cyclo-    C5H11,pentyl    C5H11,t-pentyl  C5H12,n-pentane
 C5H12,i-pentane CH3C(CH3)2CH3   C6H2            C6H5,phenyl     C6H5O,phenoxy  
 C6H6            C6H5OH,phenol   C6H10,cyclo-    C6H12,1-hexene  C6H12,cyclo-   
 C6H13,n-hexyl   C6H14,n-hexane  C7H7,benzyl     C7H8            C7H8O,cresol-mx
 C7H14,1-heptene C7H15,n-heptyl  C7H16,n-heptane C7H16,2-methylh C8H8,styrene   
 C8H10,ethylbenz C8H16,1-octene  C8H17,n-octyl   C8H18,n-octane  C8H18,isooctane
 C9H19,n-nonyl   C10H8,naphthale C10H21,n-decyl  C12H9,o-bipheny C12H10,biphenyl
 HCCO            HCHO,formaldehy HCOOH           H2O2            (HCOOH)2       
 O3              C(gr)           H2O(cr)         H2O(L)         

 NOTE. WEIGHT FRACTION OF FUEL IN TOTAL FUELS AND OF OXIDANT IN TOTAL OXIDANTS



