
 *******************************************************************************

         NASA-GLENN CHEMICAL EQUILIBRIUM PROGRAM CEA2, MAY 21, 2004
                   BY  BONNIE MCBRIDE AND SANFORD GORDON
      REFS: NASA RP-1311, PART I, 1994 AND NASA RP-1311, PART II, 1996

 *******************************************************************************



 prob rocket fac p,bar=68,ac/at=1.00,
 super=25, pi/pe=68
 reac
   fuel = CH4  moles=0.50 t(k)= 298.15
   oxid = O2   moles=1.00 t(k)= 298.15
 end

 OPTIONS: TP=F  HP=F  SP=F  TV=F  UV=F  SV=F  DETN=F  SHOCK=F  REFL=F  INCD=F
 RKT=T  FROZ=F  EQL=T  IONS=F  SIUNIT=T  DEBUGF=F  SHKDBG=F  DETDBG=F  TRNSPT=F

 TRACE= 0.00E+00  S/R= 0.000000E+00  H/R= 0.000000E+00  U/R= 0.000000E+00

 Pc,BAR =    68.000000

 Pc/P =    68.0000

 SUBSONIC AREA RATIOS =

 SUPERSONIC AREA RATIOS =    25.0000

 NFZ=  1  Mdot/Ac= 0.000000E+00  Ac/At= 1.000000E+00

    REACTANT           MOLES    (ENERGY/R),K   TEMP,K  DENSITY
        EXPLODED FORMULA
 F: CH4              0.500000  -0.897227E+04   298.15  0.0000
          C  1.00000  H  4.00000
 O: O2               1.000000  -0.154035E-05   298.15  0.0000
          O  2.00000

  SPECIES BEING CONSIDERED IN THIS SYSTEM
 (CONDENSED PHASE MAY HAVE NAME LISTED SEVERAL TIMES)
  LAST thermo.inp UPDATE:    9/09/04

  g 7/97  *C               tpis79  *CH              g 4/02  CH2            
  g 4/02  CH3              g11/00  CH2OH            g 7/00  CH3O           
  g 8/99  CH4              g 7/00  CH3OH            srd 01  CH3OOH         
  tpis79  *CO              g 9/99  *CO2             tpis91  COOH           
  tpis91  *C2              g 6/01  C2H              g 1/91  C2H2,acetylene 
  g 5/01  C2H2,vinylidene  g 4/02  CH2CO,ketene     g 3/02  O(CH)2O        
  srd 01  HO(CO)2OH        g 7/01  C2H3,vinyl       g 6/96  CH3CO,acetyl   
  g 1/00  C2H4             g 8/88  C2H4O,ethylen-o  g 8/88  CH3CHO,ethanal 
  g 6/00  CH3COOH          srd 01  OHCH2COOH        g 7/00  C2H5           
  g 7/00  C2H6             g 8/88  C2H5OH           g 7/00  CH3OCH3        
  srd 01  CH3O2CH3         g 8/00  C2O              tpis79  *C3            
  n 4/98  C3H3,1-propynl   n 4/98  C3H3,2-propynl   g 2/00  C3H4,allene    
  g 1/00  C3H4,propyne     g 5/90  C3H4,cyclo-      g 3/01  C3H5,allyl     
  g 2/00  C3H6,propylene   g 1/00  C3H6,cyclo-      g 6/01  C3H6O,propylox 
  g 6/97  C3H6O,acetone    g 1/02  C3H6O,propanal   g 7/01  C3H7,n-propyl  
  g 9/85  C3H7,i-propyl    g 2/00  C3H8             g 2/00  C3H8O,1propanol
  g 2/00  C3H8O,2propanol  g 7/88  C3O2             g tpis  *C4            
  g 7/01  C4H2,butadiyne   g 8/00  C4H4,1,3-cyclo-  n10/92  C4H6,butadiene 
  n10/93  C4H6,1butyne     n10/93  C4H6,2butyne     g 8/00  C4H6,cyclo-    
  n 4/88  C4H8,1-butene    n 4/88  C4H8,cis2-buten  n 4/88  C4H8,tr2-butene
  n 4/88  C4H8,isobutene   g 8/00  C4H8,cyclo-      g10/00  (CH3COOH)2     
  n10/84  C4H9,n-butyl     n10/84  C4H9,i-butyl     g 1/93  C4H9,s-butyl   
  g 1/93  C4H9,t-butyl     g12/00  C4H10,n-butane   g 8/00  C4H10,isobutane
  g 8/00  *C5              g 5/90  C5H6,1,3cyclo-   g 1/93  C5H8,cyclo-    
  n 4/87  C5H10,1-pentene  g 2/01  C5H10,cyclo-     n10/84  C5H11,pentyl   
  g 1/93  C5H11,t-pentyl   n10/85  C5H12,n-pentane  n10/85  C5H12,i-pentane
  n10/85  CH3C(CH3)2CH3    g 2/93  C6H2             g11/00  C6H5,phenyl    
  g 8/00  C6H5O,phenoxy    g 8/00  C6H6             g 8/00  C6H5OH,phenol  
  g 1/93  C6H10,cyclo-     n 4/87  C6H12,1-hexene   g 6/90  C6H12,cyclo-   
  n10/83  C6H13,n-hexyl    g 6/01  C6H14,n-hexane   g 7/01  C7H7,benzyl    
  g 1/93  C7H8             g12/00  C7H8O,cresol-mx  n 4/87  C7H14,1-heptene
  n10/83  C7H15,n-heptyl   n10/85  C7H16,n-heptane  n10/85  C7H16,2-methylh
  n 4/89  C8H8,styrene     n10/86  C8H10,ethylbenz  n 4/87  C8H16,1-octene 
  n10/83  C8H17,n-octyl    n 4/85  C8H18,n-octane   n 4/85  C8H18,isooctane
  n10/83  C9H19,n-nonyl    g 3/01  C10H8,naphthale  n10/83  C10H21,n-decyl 
  g 8/00  C12H9,o-bipheny  g 8/00  C12H10,biphenyl  g 6/97  *H             
  g 1/01  HCO              g 6/01  HCCO             g 4/02  HO2            
  tpis78  *H2              g 5/01  HCHO,formaldehy  g 6/01  HCOOH          
  g 8/89  H2O              g 6/99  H2O2             g 6/01  (HCOOH)2       
  g 5/97  *O               g 4/02  *OH              tpis89  *O2            
  g 8/01  O3               n 4/83  C(gr)            n 4/83  C(gr)          
  n 4/83  C(gr)            g11/99  H2O(cr)          g 8/01  H2O(L)         
  g 8/01  H2O(L)         

 O/F =   3.989263

                       EFFECTIVE FUEL     EFFECTIVE OXIDANT        MIXTURE
 ENTHALPY                  h(2)/R              h(1)/R               h0/R
 (KG-MOL)(K)/KG       -0.55928246E+03     -0.48137850E-07     -0.11209720E+03

 KG-FORM.WT./KG             bi(2)               bi(1)               b0i
  *C                   0.62334580E-01      0.00000000E+00      0.12493744E-01
  *H                   0.24933832E+00      0.00000000E+00      0.49974975E-01
  *O                   0.00000000E+00      0.62502344E-01      0.49974975E-01

 POINT ITN      T            C           H           O 
   1   23    3623.656     -16.527     -10.118     -14.755
   2    3    3587.033     -16.669     -10.214     -14.853
 Pinf/Pt = 1.727191
   3    3    3423.520     -17.074     -10.437     -15.049
 Pinf/Pt = 1.724365
   3    2    3423.991     -17.073     -10.436     -15.049
   4    3    3439.737     -17.032     -10.413     -15.029
   4    2    3432.124     -17.051     -10.424     -15.038
   4    2    3428.125     -17.062     -10.430     -15.044
   4    2    3426.075     -17.067     -10.433     -15.046
   4    2    3425.037     -17.070     -10.434     -15.047
   2    2    3593.345     -16.644     -10.197     -14.836
 Pinf/Pt = 1.727305
   3    3    3429.157     -17.049     -10.420     -15.032
 Pinf/Pt = 1.724477
   3    2    3429.631     -17.048     -10.419     -15.032
   4    3    3445.440     -17.007     -10.397     -15.012
   4    2    3437.797     -17.027     -10.408     -15.021
   4    2    3433.781     -17.037     -10.413     -15.027
   4    2    3431.723     -17.043     -10.416     -15.029
   4    2    3430.680     -17.045     -10.418     -15.030
   2    1    3593.342     -16.645     -10.197     -14.836
 Pinf/Pt = 1.727305
   3    3    3429.154     -17.049     -10.420     -15.032
 Pinf/Pt = 1.724476
   3    2    3429.628     -17.048     -10.419     -15.032
   4    3    3445.438     -17.007     -10.397     -15.012
   4    2    3437.794     -17.027     -10.408     -15.021
   4    2    3433.778     -17.037     -10.413     -15.027
   4    2    3431.720     -17.043     -10.416     -15.029
   4    2    3430.678     -17.045     -10.418     -15.030
 END OF CHAMBER ITERATIONS
   4    5    2608.594     -19.874     -11.971     -16.465
   5    4    2300.147     -21.438     -12.795     -17.265
   5    3    2369.662     -21.054     -12.596     -17.070
   5    2    2369.882     -21.053     -12.596     -17.069





              THEORETICAL ROCKET PERFORMANCE ASSUMING EQUILIBRIUM

            COMPOSITION DURING EXPANSION FROM FINITE AREA COMBUSTOR

 Pin =   986.3 PSIA
 Ac/At =  1.0000      Pinj/Pinf =  1.231369
 CASE =                

             REACTANT                       MOLES         ENERGY      TEMP
                                                         KJ/KG-MOL      K
 FUEL        CH4                          0.5000000    -74600.000    298.150
 OXIDANT     O2                           1.0000000        -0.000    298.150

 O/F=    3.98926  %FUEL= 20.043038  R,EQ.RATIO= 1.000000  PHI,EQ.RATIO= 1.000000

                 INJECTOR  COMB END  THROAT     EXIT     EXIT
 Pinj/P            1.0000   2.1158   2.1235   68.000   235.64
 P, BAR            68.000   32.140   32.023   1.0000  0.28857
 T, K             3623.66  3430.68  3429.63  2608.59  2369.88
 RHO, KG/CU M    5.1258 0 2.5875 0 2.5791 0 1.1475-1 3.7323-2
 H, KJ/KG         -932.03 -1625.00 -1629.50 -5240.27 -6261.02
 U, KJ/KG        -2258.66 -2867.12 -2871.13 -6111.76 -7034.20
 G, KJ/KG        -43672.8 -42351.4 -42343.4 -36207.5 -34394.4
 S, KJ/(KG)(K)    11.7949  11.8712  11.8712  11.8712  11.8712

 M, (1/n)          22.711   22.964   22.966   24.888   25.485
 (dLV/dLP)t      -1.04837 -1.04572 -1.04569 -1.02282 -1.01532
 (dLV/dLT)p        1.8463   1.8466   1.8464   1.5651   1.4197
 Cp, KJ/(KG)(K)    7.6912   7.9316   7.9317   6.8455   5.8834
 GAMMAs            1.1285   1.1235   1.1235   1.1071   1.1067
 SON VEL,M/SEC     1223.6   1181.3   1181.1    982.2    925.0
 MACH NUMBER        0.000    0.997    1.000    2.988    3.529

 PERFORMANCE PARAMETERS

 Ae/At                      1.0000   1.0000   9.0437   25.000
 CSTAR, M/SEC               1812.9   1812.9   1812.9   1812.9
 CF                         0.6494   0.6515   1.6192   1.8008
 Ivac, M/SEC                2232.4   2232.3   3232.3   3501.5
 Isp, M/SEC                 1177.3   1181.1   2935.4   3264.7


 MOLE FRACTIONS

 *CO              0.14183  0.13501  0.13495  0.07424  0.05115
 *CO2             0.14189  0.15189  0.15197  0.23670  0.26726
 COOH             0.00001  0.00001  0.00001  0.00000  0.00000
 *H               0.02179  0.02007  0.02005  0.00663  0.00362
 HCO              0.00001  0.00000  0.00000  0.00000  0.00000
 HO2              0.00029  0.00019  0.00019  0.00001  0.00000
 *H2              0.05371  0.05098  0.05096  0.02771  0.01989
 H2O              0.45429  0.46887  0.46899  0.57329  0.60434
 H2O2             0.00004  0.00002  0.00002  0.00000  0.00000
 *O               0.02110  0.01876  0.01874  0.00492  0.00237
 *OH              0.09679  0.08762  0.08755  0.03511  0.02153
 *O2              0.06824  0.06658  0.06656  0.04138  0.02985

  * THERMODYNAMIC PROPERTIES FITTED TO 20000.K

    PRODUCTS WHICH WERE CONSIDERED BUT WHOSE MOLE FRACTIONS
    WERE LESS THAN 5.000000E-06 FOR ALL ASSIGNED CONDITIONS

 *C              *CH             CH2             CH3             CH2OH          
 CH3O            CH4             CH3OH           CH3OOH          *C2            
 C2H             C2H2,acetylene  C2H2,vinylidene CH2CO,ketene    O(CH)2O        
 HO(CO)2OH       C2H3,vinyl      CH3CO,acetyl    C2H4            C2H4O,ethylen-o
 CH3CHO,ethanal  CH3COOH         OHCH2COOH       C2H5            C2H6           
 C2H5OH          CH3OCH3         CH3O2CH3        C2O             *C3            
 C3H3,1-propynl  C3H3,2-propynl  C3H4,allene     C3H4,propyne    C3H4,cyclo-    
 C3H5,allyl      C3H6,propylene  C3H6,cyclo-     C3H6O,propylox  C3H6O,acetone  
 C3H6O,propanal  C3H7,n-propyl   C3H7,i-propyl   C3H8            C3H8O,1propanol
 C3H8O,2propanol C3O2            *C4             C4H2,butadiyne  C4H4,1,3-cyclo-
 C4H6,butadiene  C4H6,1butyne    C4H6,2butyne    C4H6,cyclo-     C4H8,1-butene  
 C4H8,cis2-buten C4H8,tr2-butene C4H8,isobutene  C4H8,cyclo-     (CH3COOH)2     
 C4H9,n-butyl    C4H9,i-butyl    C4H9,s-butyl    C4H9,t-butyl    C4H10,n-butane 
 C4H10,isobutane *C5             C5H6,1,3cyclo-  C5H8,cyclo-     C5H10,1-pentene
 C5H10,cyclo-    C5H11,pentyl    C5H11,t-pentyl  C5H12,n-pentane C5H12,i-pentane
 CH3C(CH3)2CH3   C6H2            C6H5,phenyl     C6H5O,phenoxy   C6H6           
 C6H5OH,phenol   C6H10,cyclo-    C6H12,1-hexene  C6H12,cyclo-    C6H13,n-hexyl  
 C6H14,n-hexane  C7H7,benzyl     C7H8            C7H8O,cresol-mx C7H14,1-heptene
 C7H15,n-heptyl  C7H16,n-heptane C7H16,2-methylh C8H8,styrene    C8H10,ethylbenz
 C8H16,1-octene  C8H17,n-octyl   C8H18,n-octane  C8H18,isooctane C9H19,n-nonyl  
 C10H8,naphthale C10H21,n-decyl  C12H9,o-bipheny C12H10,biphenyl HCCO           
 HCHO,formaldehy HCOOH           (HCOOH)2        O3              C(gr)          
 H2O(cr)         H2O(L)         



