
 *******************************************************************************

         NASA-GLENN CHEMICAL EQUILIBRIUM PROGRAM CEA2, MAY 21, 2004
                   BY  BONNIE MCBRIDE AND SANFORD GORDON
      REFS: NASA RP-1311, PART I, 1994 AND NASA RP-1311, PART II, 1996

 *******************************************************************************



 prob rocket fac p,bar=10.69,ac/at=12.7134051217,
 o/f=1.12966061219, pi/pe=1, eq
 react
 	oxid=O2  wt=0.980660342574	t,k=387.3
 	oxid=H2O wt=0.0116037944557	t,k=387.3
 	oxid=CO2 wt=0.0077358629705	t,k=387.3
 	fuel=PMMA  wt=100 t,k=293.15
 	h,kj/mol=-442.14  C 5 H 8 O 2
 end

 OPTIONS: TP=F  HP=F  SP=F  TV=F  UV=F  SV=F  DETN=F  SHOCK=F  REFL=F  INCD=F
 RKT=T  FROZ=F  EQL=T  IONS=F  SIUNIT=T  DEBUGF=F  SHKDBG=F  DETDBG=T  TRNSPT=F

 TRACE= 0.00E+00  S/R= 0.000000E+00  H/R= 0.000000E+00  U/R= 0.000000E+00

 Pc,BAR =    10.690000

 Pc/P =     1.0000

 SUBSONIC AREA RATIOS =

 SUPERSONIC AREA RATIOS =

 NFZ=  1  Mdot/Ac= 0.000000E+00  Ac/At= 1.271341E+01

    REACTANT          WT.FRAC   (ENERGY/R),K   TEMP,K  DENSITY
        EXPLODED FORMULA
 O: O2               0.980660   0.318045E+03   387.30  0.0000
          O  2.00000
 O: H2O              0.011604  -0.287219E+05   387.30  0.0000
          H  2.00000  O  1.00000
 O: CO2              0.007736  -0.469093E+05   387.30  0.0000
          C  1.00000  O  2.00000
 F: PMMA             1.000000  -0.531769E+05   293.15  0.0000
          C  5.00000  H  8.00000  O  2.00000

  SPECIES BEING CONSIDERED IN THIS SYSTEM
 (CONDENSED PHASE MAY HAVE NAME LISTED SEVERAL TIMES)
  LAST thermo.inp UPDATE:    9/09/04

  g 7/97  *C               tpis79  *CH              g 4/02  CH2            
  g 4/02  CH3              g11/00  CH2OH            g 7/00  CH3O           
  g 8/99  CH4              g 7/00  CH3OH            srd 01  CH3OOH         
  tpis79  *CO              g 9/99  *CO2             tpis91  COOH           
  tpis91  *C2              g 6/01  C2H              g 1/91  C2H2,acetylene 
  g 5/01  C2H2,vinylidene  g 4/02  CH2CO,ketene     g 3/02  O(CH)2O        
  srd 01  HO(CO)2OH        g 7/01  C2H3,vinyl       g 6/96  CH3CO,acetyl   
  g 1/00  C2H4             g 8/88  C2H4O,ethylen-o  g 8/88  CH3CHO,ethanal 
  g 6/00  CH3COOH          srd 01  OHCH2COOH        g 7/00  C2H5           
  g 7/00  C2H6             g 8/88  C2H5OH           g 7/00  CH3OCH3        
  srd 01  CH3O2CH3         g 8/00  C2O              tpis79  *C3            
  n 4/98  C3H3,1-propynl   n 4/98  C3H3,2-propynl   g 2/00  C3H4,allene    
  g 1/00  C3H4,propyne     g 5/90  C3H4,cyclo-      g 3/01  C3H5,allyl     
  g 2/00  C3H6,propylene   g 1/00  C3H6,cyclo-      g 6/01  C3H6O,propylox 
  g 6/97  C3H6O,acetone    g 1/02  C3H6O,propanal   g 7/01  C3H7,n-propyl  
  g 9/85  C3H7,i-propyl    g 2/00  C3H8             g 2/00  C3H8O,1propanol
  g 2/00  C3H8O,2propanol  g 7/88  C3O2             g tpis  *C4            
  g 7/01  C4H2,butadiyne   g 8/00  C4H4,1,3-cyclo-  n10/92  C4H6,butadiene 
  n10/93  C4H6,1butyne     n10/93  C4H6,2butyne     g 8/00  C4H6,cyclo-    
  n 4/88  C4H8,1-butene    n 4/88  C4H8,cis2-buten  n 4/88  C4H8,tr2-butene
  n 4/88  C4H8,isobutene   g 8/00  C4H8,cyclo-      g10/00  (CH3COOH)2     
  n10/84  C4H9,n-butyl     n10/84  C4H9,i-butyl     g 1/93  C4H9,s-butyl   
  g 1/93  C4H9,t-butyl     g12/00  C4H10,n-butane   g 8/00  C4H10,isobutane
  g 8/00  *C5              g 5/90  C5H6,1,3cyclo-   g 1/93  C5H8,cyclo-    
  n 4/87  C5H10,1-pentene  g 2/01  C5H10,cyclo-     n10/84  C5H11,pentyl   
  g 1/93  C5H11,t-pentyl   n10/85  C5H12,n-pentane  n10/85  C5H12,i-pentane
  n10/85  CH3C(CH3)2CH3    g 2/93  C6H2             g11/00  C6H5,phenyl    
  g 8/00  C6H5O,phenoxy    g 8/00  C6H6             g 8/00  C6H5OH,phenol  
  g 1/93  C6H10,cyclo-     n 4/87  C6H12,1-hexene   g 6/90  C6H12,cyclo-   
  n10/83  C6H13,n-hexyl    g 6/01  C6H14,n-hexane   g 7/01  C7H7,benzyl    
  g 1/93  C7H8             g12/00  C7H8O,cresol-mx  n 4/87  C7H14,1-heptene
  n10/83  C7H15,n-heptyl   n10/85  C7H16,n-heptane  n10/85  C7H16,2-methylh
  n 4/89  C8H8,styrene     n10/86  C8H10,ethylbenz  n 4/87  C8H16,1-octene 
  n10/83  C8H17,n-octyl    n 4/85  C8H18,n-octane   n 4/85  C8H18,isooctane
  n10/83  C9H19,n-nonyl    g 3/01  C10H8,naphthale  n10/83  C10H21,n-decyl 
  g 8/00  C12H9,o-bipheny  g 8/00  C12H10,biphenyl  g 6/97  *H             
  g 1/01  HCO              g 6/01  HCCO             g 4/02  HO2            
  tpis78  *H2              g 5/01  HCHO,formaldehy  g 6/01  HCOOH          
  g 8/89  H2O              g 6/99  H2O2             g 6/01  (HCOOH)2       
  g 5/97  *O               g 4/02  *OH              tpis89  *O2            
  g 8/01  O3               n 4/83  C(gr)            n 4/83  C(gr)          
  n 4/83  C(gr)            g11/99  H2O(cr)          g 8/01  H2O(L)         
  g 8/01  H2O(L)         

 O/F =   1.129661

                       EFFECTIVE FUEL     EFFECTIVE OXIDANT        MIXTURE
 ENTHALPY                  h(2)/R              h(1)/R               h0/R
 (KG-MOL)(K)/KG       -0.53115398E+03     -0.16998557E+02     -0.25842455E+03

 KG-FORM.WT./KG             bi(2)               bi(1)               b0i
  *O                   0.19976863E-01      0.62289233E-01      0.42421105E-01
  *H                   0.79907451E-01      0.12882169E-02      0.38204538E-01
  *C                   0.49942157E-01      0.17577712E-03      0.23543998E-01

 POINT ITN      T            O           H           C 
   1   23    3029.976     -17.372     -10.272     -14.717
   2    2    3027.961     -17.378     -10.286     -14.741
 Pinf/Pt = 1.746012
   3    4    2822.702     -17.977     -10.426     -14.762
 Pinf/Pt = 1.752983
   3    2    2821.218     -17.982     -10.427     -14.762
 Pinf/Pt = 1.753042
   3    1    2821.205     -17.982     -10.427     -14.762
   4    1    3027.885     -17.379     -10.286     -14.741
   4    2    3027.747     -17.379     -10.286     -14.741
   4    2    3027.581     -17.379     -10.286     -14.741
   4    1    3027.504     -17.380     -10.286     -14.741
   4    1    3027.496     -17.380     -10.286     -14.741
   2    2    3029.891     -17.373     -10.272     -14.718
 Pinf/Pt = 1.746213
   3    4    2823.919     -17.973     -10.412     -14.737
 Pinf/Pt = 1.753204
   3    2    2822.426     -17.977     -10.413     -14.737
 Pinf/Pt = 1.753263
   3    1    2822.414     -17.977     -10.413     -14.737
   4    1    3029.815     -17.373     -10.272     -14.718
   4    2    3029.676     -17.373     -10.272     -14.718
   4    2    3029.509     -17.374     -10.272     -14.718
   4    1    3029.433     -17.374     -10.273     -14.718
   4    1    3029.424     -17.374     -10.273     -14.718
 END OF CHAMBER ITERATIONS

 WARNING!!  ASSIGNED pip =   1.00000 IS NOT PERMITTED
 TO BE LESS THAN  Pinj/Pc =  1.00255. POINT OMITTED (ROCKET)





              THEORETICAL ROCKET PERFORMANCE ASSUMING EQUILIBRIUM

            COMPOSITION DURING EXPANSION FROM FINITE AREA COMBUSTOR

 Pin =   155.0 PSIA
 Ac/At = 12.7134      Pinj/Pinf =  1.001273
 CASE =                

             REACTANT                    WT FRACTION      ENERGY      TEMP
                                          (SEE NOTE)     KJ/KG-MOL      K  
 OXIDANT     O2                           0.9806603      2644.389    387.300
 OXIDANT     H2O                          0.0116038   -238808.628    387.300
 OXIDANT     CO2                          0.0077359   -390028.202    387.300
 FUEL        PMMA                         1.0000000   -442140.000    293.150

 O/F=    1.12966  %FUEL= 46.955839  R,EQ.RATIO= 1.560315  PHI,EQ.RATIO= 1.731074

                 INJECTOR  COMB END  THROAT
 Pinj/P            1.0000   1.0026   1.7555
 P, BAR            10.690   10.663   6.0895
 T, K             3029.98  3029.42  2822.41
 RHO, KG/CU M    9.7527-1 9.7298-1 6.0112-1
 H, KJ/KG        -2148.67 -2150.07 -2740.68
 U, KJ/KG        -3244.78 -3245.96 -3753.69
 G, KJ/KG        -37181.2 -37177.6 -35374.6
 S, KJ/(KG)(K)    11.5620  11.5624  11.5624

 M, (1/n)          22.984   22.984   23.166
 (dLV/dLP)t      -1.01092 -1.01092 -1.00647
 (dLV/dLT)p        1.2223   1.2221   1.1399
 Cp, KJ/(KG)(K)    3.6573   3.6567   3.0907
 GAMMAs            1.1585   1.1585   1.1688
 SON VEL,M/SEC     1126.9   1126.8   1088.1
 MACH NUMBER        0.000    0.047    1.000

 PERFORMANCE PARAMETERS

 Ae/At                      12.714   1.0000
 CSTAR, M/SEC               1632.2   1632.2
 CF                         0.0324   0.6666
 Ivac, M/SEC               20779.3   2019.1
 Isp, M/SEC                   52.9   1088.1


 MOLE FRACTIONS

 *CO              0.41710  0.41709  0.41517
 *CO2             0.12403  0.12404  0.13023
 *H               0.01918  0.01917  0.01319
 HCO              0.00001  0.00001  0.00000
 *H2              0.13098  0.13099  0.13479
 H2O              0.29064  0.29065  0.29660
 *O               0.00129  0.00128  0.00051
 *OH              0.01565  0.01564  0.00906
 *O2              0.00113  0.00113  0.00045

  * THERMODYNAMIC PROPERTIES FITTED TO 20000.K

    PRODUCTS WHICH WERE CONSIDERED BUT WHOSE MOLE FRACTIONS
    WERE LESS THAN 5.000000E-06 FOR ALL ASSIGNED CONDITIONS

 *C              *CH             CH2             CH3             CH2OH          
 CH3O            CH4             CH3OH           CH3OOH          COOH           
 *C2             C2H             C2H2,acetylene  C2H2,vinylidene CH2CO,ketene   
 O(CH)2O         HO(CO)2OH       C2H3,vinyl      CH3CO,acetyl    C2H4           
 C2H4O,ethylen-o CH3CHO,ethanal  CH3COOH         OHCH2COOH       C2H5           
 C2H6            C2H5OH          CH3OCH3         CH3O2CH3        C2O            
 *C3             C3H3,1-propynl  C3H3,2-propynl  C3H4,allene     C3H4,propyne   
 C3H4,cyclo-     C3H5,allyl      C3H6,propylene  C3H6,cyclo-     C3H6O,propylox 
 C3H6O,acetone   C3H6O,propanal  C3H7,n-propyl   C3H7,i-propyl   C3H8           
 C3H8O,1propanol C3H8O,2propanol C3O2            *C4             C4H2,butadiyne 
 C4H4,1,3-cyclo- C4H6,butadiene  C4H6,1butyne    C4H6,2butyne    C4H6,cyclo-    
 C4H8,1-butene   C4H8,cis2-buten C4H8,tr2-butene C4H8,isobutene  C4H8,cyclo-    
 (CH3COOH)2      C4H9,n-butyl    C4H9,i-butyl    C4H9,s-butyl    C4H9,t-butyl   
 C4H10,n-butane  C4H10,isobutane *C5             C5H6,1,3cyclo-  C5H8,cyclo-    
 C5H10,1-pentene C5H10,cyclo-    C5H11,pentyl    C5H11,t-pentyl  C5H12,n-pentane
 C5H12,i-pentane CH3C(CH3)2CH3   C6H2            C6H5,phenyl     C6H5O,phenoxy  
 C6H6            C6H5OH,phenol   C6H10,cyclo-    C6H12,1-hexene  C6H12,cyclo-   
 C6H13,n-hexyl   C6H14,n-hexane  C7H7,benzyl     C7H8            C7H8O,cresol-mx
 C7H14,1-heptene C7H15,n-heptyl  C7H16,n-heptane C7H16,2-methylh C8H8,styrene   
 C8H10,ethylbenz C8H16,1-octene  C8H17,n-octyl   C8H18,n-octane  C8H18,isooctane
 C9H19,n-nonyl   C10H8,naphthale C10H21,n-decyl  C12H9,o-bipheny C12H10,biphenyl
 HCCO            HO2             HCHO,formaldehy HCOOH           H2O2           
 (HCOOH)2        O3              C(gr)           H2O(cr)         H2O(L)         

 NOTE. WEIGHT FRACTION OF FUEL IN TOTAL FUELS AND OF OXIDANT IN TOTAL OXIDANTS






 WARNING!!  ASSIGNED pip =   0.00000 IS NOT PERMITTED
 TO BE LESS THAN  Pinj/Pc =  1.00255. POINT OMITTED (ROCKET)





              THEORETICAL ROCKET PERFORMANCE ASSUMING EQUILIBRIUM

            COMPOSITION DURING EXPANSION FROM FINITE AREA COMBUSTOR

 Pin =   155.0 PSIA
 Ac/At = 12.7134      Pinj/Pinf =  1.001273
 CASE =                

             REACTANT                    WT FRACTION      ENERGY      TEMP
                                          (SEE NOTE)     KJ/KG-MOL      K  
 OXIDANT     O2                           0.9806603      2644.389    387.300
 OXIDANT     H2O                          0.0116038   -238808.628    387.300
 OXIDANT     CO2                          0.0077359   -390028.202    387.300
 FUEL        PMMA                         1.0000000   -442140.000    293.150

 O/F=    1.12966  %FUEL= 46.955839  R,EQ.RATIO= 1.560315  PHI,EQ.RATIO= 1.731074

                 INJECTOR  COMB END  THROAT
 Pinj/P            1.0000   1.0026   1.7555
 P, BAR            10.690   10.663   6.0895
 T, K             3029.98  3029.42  2822.41
 RHO, KG/CU M    9.7527-1 9.7298-1 6.0112-1
 H, KJ/KG        -2148.67 -2150.07 -2740.68
 U, KJ/KG        -3244.78 -3245.96 -3753.69
 G, KJ/KG        -37181.2 -37177.6 -35374.6
 S, KJ/(KG)(K)    11.5620  11.5624  11.5624

 M, (1/n)          22.984   22.984   23.166
 (dLV/dLP)t      -1.01092 -1.01092 -1.00647
 (dLV/dLT)p        1.2223   1.2221   1.1399
 Cp, KJ/(KG)(K)    3.6573   3.6567   3.0907
 GAMMAs            1.1585   1.1585   1.1688
 SON VEL,M/SEC     1126.9   1126.8   1088.1
 MACH NUMBER        0.000    0.047    1.000

 PERFORMANCE PARAMETERS

 Ae/At                      12.714   1.0000
 CSTAR, M/SEC               1632.2   1632.2
 CF                         0.0324   0.6666
 Ivac, M/SEC               20779.3   2019.1
 Isp, M/SEC                   52.9   1088.1


 MOLE FRACTIONS

 *CO              0.41710  0.41709  0.41517
 *CO2             0.12403  0.12404  0.13023
 *H               0.01918  0.01917  0.01319
 HCO              0.00001  0.00001  0.00000
 *H2              0.13098  0.13099  0.13479
 H2O              0.29064  0.29065  0.29660
 *O               0.00129  0.00128  0.00051
 *OH              0.01565  0.01564  0.00906
 *O2              0.00113  0.00113  0.00045

  * THERMODYNAMIC PROPERTIES FITTED TO 20000.K

    PRODUCTS WHICH WERE CONSIDERED BUT WHOSE MOLE FRACTIONS
    WERE LESS THAN 5.000000E-06 FOR ALL ASSIGNED CONDITIONS

 *C              *CH             CH2             CH3             CH2OH          
 CH3O            CH4             CH3OH           CH3OOH          COOH           
 *C2             C2H             C2H2,acetylene  C2H2,vinylidene CH2CO,ketene   
 O(CH)2O         HO(CO)2OH       C2H3,vinyl      CH3CO,acetyl    C2H4           
 C2H4O,ethylen-o CH3CHO,ethanal  CH3COOH         OHCH2COOH       C2H5           
 C2H6            C2H5OH          CH3OCH3         CH3O2CH3        C2O            
 *C3             C3H3,1-propynl  C3H3,2-propynl  C3H4,allene     C3H4,propyne   
 C3H4,cyclo-     C3H5,allyl      C3H6,propylene  C3H6,cyclo-     C3H6O,propylox 
 C3H6O,acetone   C3H6O,propanal  C3H7,n-propyl   C3H7,i-propyl   C3H8           
 C3H8O,1propanol C3H8O,2propanol C3O2            *C4             C4H2,butadiyne 
 C4H4,1,3-cyclo- C4H6,butadiene  C4H6,1butyne    C4H6,2butyne    C4H6,cyclo-    
 C4H8,1-butene   C4H8,cis2-buten C4H8,tr2-butene C4H8,isobutene  C4H8,cyclo-    
 (CH3COOH)2      C4H9,n-butyl    C4H9,i-butyl    C4H9,s-butyl    C4H9,t-butyl   
 C4H10,n-butane  C4H10,isobutane *C5             C5H6,1,3cyclo-  C5H8,cyclo-    
 C5H10,1-pentene C5H10,cyclo-    C5H11,pentyl    C5H11,t-pentyl  C5H12,n-pentane
 C5H12,i-pentane CH3C(CH3)2CH3   C6H2            C6H5,phenyl     C6H5O,phenoxy  
 C6H6            C6H5OH,phenol   C6H10,cyclo-    C6H12,1-hexene  C6H12,cyclo-   
 C6H13,n-hexyl   C6H14,n-hexane  C7H7,benzyl     C7H8            C7H8O,cresol-mx
 C7H14,1-heptene C7H15,n-heptyl  C7H16,n-heptane C7H16,2-methylh C8H8,styrene   
 C8H10,ethylbenz C8H16,1-octene  C8H17,n-octyl   C8H18,n-octane  C8H18,isooctane
 C9H19,n-nonyl   C10H8,naphthale C10H21,n-decyl  C12H9,o-bipheny C12H10,biphenyl
 HCCO            HO2             HCHO,formaldehy HCOOH           H2O2           
 (HCOOH)2        O3              C(gr)           H2O(cr)         H2O(L)         

 NOTE. WEIGHT FRACTION OF FUEL IN TOTAL FUELS AND OF OXIDANT IN TOTAL OXIDANTS






 WARNING!!  ASSIGNED pip =   0.00000 IS NOT PERMITTED
 TO BE LESS THAN  Pinj/Pc =  1.00255. POINT OMITTED (ROCKET)





              THEORETICAL ROCKET PERFORMANCE ASSUMING EQUILIBRIUM

            COMPOSITION DURING EXPANSION FROM FINITE AREA COMBUSTOR

 Pin =   155.0 PSIA
 Ac/At = 12.7134      Pinj/Pinf =  1.001273
 CASE =                

             REACTANT                    WT FRACTION      ENERGY      TEMP
                                          (SEE NOTE)     KJ/KG-MOL      K  
 OXIDANT     O2                           0.9806603      2644.389    387.300
 OXIDANT     H2O                          0.0116038   -238808.628    387.300
 OXIDANT     CO2                          0.0077359   -390028.202    387.300
 FUEL        PMMA                         1.0000000   -442140.000    293.150

 O/F=    1.12966  %FUEL= 46.955839  R,EQ.RATIO= 1.560315  PHI,EQ.RATIO= 1.731074

                 INJECTOR  COMB END  THROAT
 Pinj/P            1.0000   1.0026   1.7555
 P, BAR            10.690   10.663   6.0895
 T, K             3029.98  3029.42  2822.41
 RHO, KG/CU M    9.7527-1 9.7298-1 6.0112-1
 H, KJ/KG        -2148.67 -2150.07 -2740.68
 U, KJ/KG        -3244.78 -3245.96 -3753.69
 G, KJ/KG        -37181.2 -37177.6 -35374.6
 S, KJ/(KG)(K)    11.5620  11.5624  11.5624

 M, (1/n)          22.984   22.984   23.166
 (dLV/dLP)t      -1.01092 -1.01092 -1.00647
 (dLV/dLT)p        1.2223   1.2221   1.1399
 Cp, KJ/(KG)(K)    3.6573   3.6567   3.0907
 GAMMAs            1.1585   1.1585   1.1688
 SON VEL,M/SEC     1126.9   1126.8   1088.1
 MACH NUMBER        0.000    0.047    1.000

 PERFORMANCE PARAMETERS

 Ae/At                      12.714   1.0000
 CSTAR, M/SEC               1632.2   1632.2
 CF                         0.0324   0.6666
 Ivac, M/SEC               20779.3   2019.1
 Isp, M/SEC                   52.9   1088.1


 MOLE FRACTIONS

 *CO              0.41710  0.41709  0.41517
 *CO2             0.12403  0.12404  0.13023
 *H               0.01918  0.01917  0.01319
 HCO              0.00001  0.00001  0.00000
 *H2              0.13098  0.13099  0.13479
 H2O              0.29064  0.29065  0.29660
 *O               0.00129  0.00128  0.00051
 *OH              0.01565  0.01564  0.00906
 *O2              0.00113  0.00113  0.00045

  * THERMODYNAMIC PROPERTIES FITTED TO 20000.K

    PRODUCTS WHICH WERE CONSIDERED BUT WHOSE MOLE FRACTIONS
    WERE LESS THAN 5.000000E-06 FOR ALL ASSIGNED CONDITIONS

 *C              *CH             CH2             CH3             CH2OH          
 CH3O            CH4             CH3OH           CH3OOH          COOH           
 *C2             C2H             C2H2,acetylene  C2H2,vinylidene CH2CO,ketene   
 O(CH)2O         HO(CO)2OH       C2H3,vinyl      CH3CO,acetyl    C2H4           
 C2H4O,ethylen-o CH3CHO,ethanal  CH3COOH         OHCH2COOH       C2H5           
 C2H6            C2H5OH          CH3OCH3         CH3O2CH3        C2O            
 *C3             C3H3,1-propynl  C3H3,2-propynl  C3H4,allene     C3H4,propyne   
 C3H4,cyclo-     C3H5,allyl      C3H6,propylene  C3H6,cyclo-     C3H6O,propylox 
 C3H6O,acetone   C3H6O,propanal  C3H7,n-propyl   C3H7,i-propyl   C3H8           
 C3H8O,1propanol C3H8O,2propanol C3O2            *C4             C4H2,butadiyne 
 C4H4,1,3-cyclo- C4H6,butadiene  C4H6,1butyne    C4H6,2butyne    C4H6,cyclo-    
 C4H8,1-butene   C4H8,cis2-buten C4H8,tr2-butene C4H8,isobutene  C4H8,cyclo-    
 (CH3COOH)2      C4H9,n-butyl    C4H9,i-butyl    C4H9,s-butyl    C4H9,t-butyl   
 C4H10,n-butane  C4H10,isobutane *C5             C5H6,1,3cyclo-  C5H8,cyclo-    
 C5H10,1-pentene C5H10,cyclo-    C5H11,pentyl    C5H11,t-pentyl  C5H12,n-pentane
 C5H12,i-pentane CH3C(CH3)2CH3   C6H2            C6H5,phenyl     C6H5O,phenoxy  
 C6H6            C6H5OH,phenol   C6H10,cyclo-    C6H12,1-hexene  C6H12,cyclo-   
 C6H13,n-hexyl   C6H14,n-hexane  C7H7,benzyl     C7H8            C7H8O,cresol-mx
 C7H14,1-heptene C7H15,n-heptyl  C7H16,n-heptane C7H16,2-methylh C8H8,styrene   
 C8H10,ethylbenz C8H16,1-octene  C8H17,n-octyl   C8H18,n-octane  C8H18,isooctane
 C9H19,n-nonyl   C10H8,naphthale C10H21,n-decyl  C12H9,o-bipheny C12H10,biphenyl
 HCCO            HO2             HCHO,formaldehy HCOOH           H2O2           
 (HCOOH)2        O3              C(gr)           H2O(cr)         H2O(L)         

 NOTE. WEIGHT FRACTION OF FUEL IN TOTAL FUELS AND OF OXIDANT IN TOTAL OXIDANTS






 WARNING!!  ASSIGNED pip =   0.00000 IS NOT PERMITTED
 TO BE LESS THAN  Pinj/Pc =  1.00255. POINT OMITTED (ROCKET)





              THEORETICAL ROCKET PERFORMANCE ASSUMING EQUILIBRIUM

            COMPOSITION DURING EXPANSION FROM FINITE AREA COMBUSTOR

 Pin =   155.0 PSIA
 Ac/At = 12.7134      Pinj/Pinf =  1.001273
 CASE =                

             REACTANT                    WT FRACTION      ENERGY      TEMP
                                          (SEE NOTE)     KJ/KG-MOL      K  
 OXIDANT     O2                           0.9806603      2644.389    387.300
 OXIDANT     H2O                          0.0116038   -238808.628    387.300
 OXIDANT     CO2                          0.0077359   -390028.202    387.300
 FUEL        PMMA                         1.0000000   -442140.000    293.150

 O/F=    1.12966  %FUEL= 46.955839  R,EQ.RATIO= 1.560315  PHI,EQ.RATIO= 1.731074

                 INJECTOR  COMB END  THROAT
 Pinj/P            1.0000   1.0026   1.7555
 P, BAR            10.690   10.663   6.0895
 T, K             3029.98  3029.42  2822.41
 RHO, KG/CU M    9.7527-1 9.7298-1 6.0112-1
 H, KJ/KG        -2148.67 -2150.07 -2740.68
 U, KJ/KG        -3244.78 -3245.96 -3753.69
 G, KJ/KG        -37181.2 -37177.6 -35374.6
 S, KJ/(KG)(K)    11.5620  11.5624  11.5624

 M, (1/n)          22.984   22.984   23.166
 (dLV/dLP)t      -1.01092 -1.01092 -1.00647
 (dLV/dLT)p        1.2223   1.2221   1.1399
 Cp, KJ/(KG)(K)    3.6573   3.6567   3.0907
 GAMMAs            1.1585   1.1585   1.1688
 SON VEL,M/SEC     1126.9   1126.8   1088.1
 MACH NUMBER        0.000    0.047    1.000

 PERFORMANCE PARAMETERS

 Ae/At                      12.714   1.0000
 CSTAR, M/SEC               1632.2   1632.2
 CF                         0.0324   0.6666
 Ivac, M/SEC               20779.3   2019.1
 Isp, M/SEC                   52.9   1088.1


 MOLE FRACTIONS

 *CO              0.41710  0.41709  0.41517
 *CO2             0.12403  0.12404  0.13023
 *H               0.01918  0.01917  0.01319
 HCO              0.00001  0.00001  0.00000
 *H2              0.13098  0.13099  0.13479
 H2O              0.29064  0.29065  0.29660
 *O               0.00129  0.00128  0.00051
 *OH              0.01565  0.01564  0.00906
 *O2              0.00113  0.00113  0.00045

  * THERMODYNAMIC PROPERTIES FITTED TO 20000.K

    PRODUCTS WHICH WERE CONSIDERED BUT WHOSE MOLE FRACTIONS
    WERE LESS THAN 5.000000E-06 FOR ALL ASSIGNED CONDITIONS

 *C              *CH             CH2             CH3             CH2OH          
 CH3O            CH4             CH3OH           CH3OOH          COOH           
 *C2             C2H             C2H2,acetylene  C2H2,vinylidene CH2CO,ketene   
 O(CH)2O         HO(CO)2OH       C2H3,vinyl      CH3CO,acetyl    C2H4           
 C2H4O,ethylen-o CH3CHO,ethanal  CH3COOH         OHCH2COOH       C2H5           
 C2H6            C2H5OH          CH3OCH3         CH3O2CH3        C2O            
 *C3             C3H3,1-propynl  C3H3,2-propynl  C3H4,allene     C3H4,propyne   
 C3H4,cyclo-     C3H5,allyl      C3H6,propylene  C3H6,cyclo-     C3H6O,propylox 
 C3H6O,acetone   C3H6O,propanal  C3H7,n-propyl   C3H7,i-propyl   C3H8           
 C3H8O,1propanol C3H8O,2propanol C3O2            *C4             C4H2,butadiyne 
 C4H4,1,3-cyclo- C4H6,butadiene  C4H6,1butyne    C4H6,2butyne    C4H6,cyclo-    
 C4H8,1-butene   C4H8,cis2-buten C4H8,tr2-butene C4H8,isobutene  C4H8,cyclo-    
 (CH3COOH)2      C4H9,n-butyl    C4H9,i-butyl    C4H9,s-butyl    C4H9,t-butyl   
 C4H10,n-butane  C4H10,isobutane *C5             C5H6,1,3cyclo-  C5H8,cyclo-    
 C5H10,1-pentene C5H10,cyclo-    C5H11,pentyl    C5H11,t-pentyl  C5H12,n-pentane
 C5H12,i-pentane CH3C(CH3)2CH3   C6H2            C6H5,phenyl     C6H5O,phenoxy  
 C6H6            C6H5OH,phenol   C6H10,cyclo-    C6H12,1-hexene  C6H12,cyclo-   
 C6H13,n-hexyl   C6H14,n-hexane  C7H7,benzyl     C7H8            C7H8O,cresol-mx
 C7H14,1-heptene C7H15,n-heptyl  C7H16,n-heptane C7H16,2-methylh C8H8,styrene   
 C8H10,ethylbenz C8H16,1-octene  C8H17,n-octyl   C8H18,n-octane  C8H18,isooctane
 C9H19,n-nonyl   C10H8,naphthale C10H21,n-decyl  C12H9,o-bipheny C12H10,biphenyl
 HCCO            HO2             HCHO,formaldehy HCOOH           H2O2           
 (HCOOH)2        O3              C(gr)           H2O(cr)         H2O(L)         

 NOTE. WEIGHT FRACTION OF FUEL IN TOTAL FUELS AND OF OXIDANT IN TOTAL OXIDANTS






 WARNING!!  ASSIGNED pip =   0.00000 IS NOT PERMITTED
 TO BE LESS THAN  Pinj/Pc =  1.00255. POINT OMITTED (ROCKET)





              THEORETICAL ROCKET PERFORMANCE ASSUMING EQUILIBRIUM

            COMPOSITION DURING EXPANSION FROM FINITE AREA COMBUSTOR

 Pin =   155.0 PSIA
 Ac/At = 12.7134      Pinj/Pinf =  1.001273
 CASE =                

             REACTANT                    WT FRACTION      ENERGY      TEMP
                                          (SEE NOTE)     KJ/KG-MOL      K  
 OXIDANT     O2                           0.9806603      2644.389    387.300
 OXIDANT     H2O                          0.0116038   -238808.628    387.300
 OXIDANT     CO2                          0.0077359   -390028.202    387.300
 FUEL        PMMA                         1.0000000   -442140.000    293.150

 O/F=    1.12966  %FUEL= 46.955839  R,EQ.RATIO= 1.560315  PHI,EQ.RATIO= 1.731074

                 INJECTOR  COMB END  THROAT
 Pinj/P            1.0000   1.0026   1.7555
 P, BAR            10.690   10.663   6.0895
 T, K             3029.98  3029.42  2822.41
 RHO, KG/CU M    9.7527-1 9.7298-1 6.0112-1
 H, KJ/KG        -2148.67 -2150.07 -2740.68
 U, KJ/KG        -3244.78 -3245.96 -3753.69
 G, KJ/KG        -37181.2 -37177.6 -35374.6
 S, KJ/(KG)(K)    11.5620  11.5624  11.5624

 M, (1/n)          22.984   22.984   23.166
 (dLV/dLP)t      -1.01092 -1.01092 -1.00647
 (dLV/dLT)p        1.2223   1.2221   1.1399
 Cp, KJ/(KG)(K)    3.6573   3.6567   3.0907
 GAMMAs            1.1585   1.1585   1.1688
 SON VEL,M/SEC     1126.9   1126.8   1088.1
 MACH NUMBER        0.000    0.047    1.000

 PERFORMANCE PARAMETERS

 Ae/At                      12.714   1.0000
 CSTAR, M/SEC               1632.2   1632.2
 CF                         0.0324   0.6666
 Ivac, M/SEC               20779.3   2019.1
 Isp, M/SEC                   52.9   1088.1


 MOLE FRACTIONS

 *CO              0.41710  0.41709  0.41517
 *CO2             0.12403  0.12404  0.13023
 *H               0.01918  0.01917  0.01319
 HCO              0.00001  0.00001  0.00000
 *H2              0.13098  0.13099  0.13479
 H2O              0.29064  0.29065  0.29660
 *O               0.00129  0.00128  0.00051
 *OH              0.01565  0.01564  0.00906
 *O2              0.00113  0.00113  0.00045

  * THERMODYNAMIC PROPERTIES FITTED TO 20000.K

    PRODUCTS WHICH WERE CONSIDERED BUT WHOSE MOLE FRACTIONS
    WERE LESS THAN 5.000000E-06 FOR ALL ASSIGNED CONDITIONS

 *C              *CH             CH2             CH3             CH2OH          
 CH3O            CH4             CH3OH           CH3OOH          COOH           
 *C2             C2H             C2H2,acetylene  C2H2,vinylidene CH2CO,ketene   
 O(CH)2O         HO(CO)2OH       C2H3,vinyl      CH3CO,acetyl    C2H4           
 C2H4O,ethylen-o CH3CHO,ethanal  CH3COOH         OHCH2COOH       C2H5           
 C2H6            C2H5OH          CH3OCH3         CH3O2CH3        C2O            
 *C3             C3H3,1-propynl  C3H3,2-propynl  C3H4,allene     C3H4,propyne   
 C3H4,cyclo-     C3H5,allyl      C3H6,propylene  C3H6,cyclo-     C3H6O,propylox 
 C3H6O,acetone   C3H6O,propanal  C3H7,n-propyl   C3H7,i-propyl   C3H8           
 C3H8O,1propanol C3H8O,2propanol C3O2            *C4             C4H2,butadiyne 
 C4H4,1,3-cyclo- C4H6,butadiene  C4H6,1butyne    C4H6,2butyne    C4H6,cyclo-    
 C4H8,1-butene   C4H8,cis2-buten C4H8,tr2-butene C4H8,isobutene  C4H8,cyclo-    
 (CH3COOH)2      C4H9,n-butyl    C4H9,i-butyl    C4H9,s-butyl    C4H9,t-butyl   
 C4H10,n-butane  C4H10,isobutane *C5             C5H6,1,3cyclo-  C5H8,cyclo-    
 C5H10,1-pentene C5H10,cyclo-    C5H11,pentyl    C5H11,t-pentyl  C5H12,n-pentane
 C5H12,i-pentane CH3C(CH3)2CH3   C6H2            C6H5,phenyl     C6H5O,phenoxy  
 C6H6            C6H5OH,phenol   C6H10,cyclo-    C6H12,1-hexene  C6H12,cyclo-   
 C6H13,n-hexyl   C6H14,n-hexane  C7H7,benzyl     C7H8            C7H8O,cresol-mx
 C7H14,1-heptene C7H15,n-heptyl  C7H16,n-heptane C7H16,2-methylh C8H8,styrene   
 C8H10,ethylbenz C8H16,1-octene  C8H17,n-octyl   C8H18,n-octane  C8H18,isooctane
 C9H19,n-nonyl   C10H8,naphthale C10H21,n-decyl  C12H9,o-bipheny C12H10,biphenyl
 HCCO            HO2             HCHO,formaldehy HCOOH           H2O2           
 (HCOOH)2        O3              C(gr)           H2O(cr)         H2O(L)         

 NOTE. WEIGHT FRACTION OF FUEL IN TOTAL FUELS AND OF OXIDANT IN TOTAL OXIDANTS






 WARNING!!  ASSIGNED pip =   0.00000 IS NOT PERMITTED
 TO BE LESS THAN  Pinj/Pc =  1.00255. POINT OMITTED (ROCKET)





              THEORETICAL ROCKET PERFORMANCE ASSUMING EQUILIBRIUM

            COMPOSITION DURING EXPANSION FROM FINITE AREA COMBUSTOR

 Pin =   155.0 PSIA
 Ac/At = 12.7134      Pinj/Pinf =  1.001273
 CASE =                

             REACTANT                    WT FRACTION      ENERGY      TEMP
                                          (SEE NOTE)     KJ/KG-MOL      K  
 OXIDANT     O2                           0.9806603      2644.389    387.300
 OXIDANT     H2O                          0.0116038   -238808.628    387.300
 OXIDANT     CO2                          0.0077359   -390028.202    387.300
 FUEL        PMMA                         1.0000000   -442140.000    293.150

 O/F=    1.12966  %FUEL= 46.955839  R,EQ.RATIO= 1.560315  PHI,EQ.RATIO= 1.731074

                 INJECTOR  COMB END  THROAT
 Pinj/P            1.0000   1.0026   1.7555
 P, BAR            10.690   10.663   6.0895
 T, K             3029.98  3029.42  2822.41
 RHO, KG/CU M    9.7527-1 9.7298-1 6.0112-1
 H, KJ/KG        -2148.67 -2150.07 -2740.68
 U, KJ/KG        -3244.78 -3245.96 -3753.69
 G, KJ/KG        -37181.2 -37177.6 -35374.6
 S, KJ/(KG)(K)    11.5620  11.5624  11.5624

 M, (1/n)          22.984   22.984   23.166
 (dLV/dLP)t      -1.01092 -1.01092 -1.00647
 (dLV/dLT)p        1.2223   1.2221   1.1399
 Cp, KJ/(KG)(K)    3.6573   3.6567   3.0907
 GAMMAs            1.1585   1.1585   1.1688
 SON VEL,M/SEC     1126.9   1126.8   1088.1
 MACH NUMBER        0.000    0.047    1.000

 PERFORMANCE PARAMETERS

 Ae/At                      12.714   1.0000
 CSTAR, M/SEC               1632.2   1632.2
 CF                         0.0324   0.6666
 Ivac, M/SEC               20779.3   2019.1
 Isp, M/SEC                   52.9   1088.1


 MOLE FRACTIONS

 *CO              0.41710  0.41709  0.41517
 *CO2             0.12403  0.12404  0.13023
 *H               0.01918  0.01917  0.01319
 HCO              0.00001  0.00001  0.00000
 *H2              0.13098  0.13099  0.13479
 H2O              0.29064  0.29065  0.29660
 *O               0.00129  0.00128  0.00051
 *OH              0.01565  0.01564  0.00906
 *O2              0.00113  0.00113  0.00045

  * THERMODYNAMIC PROPERTIES FITTED TO 20000.K

    PRODUCTS WHICH WERE CONSIDERED BUT WHOSE MOLE FRACTIONS
    WERE LESS THAN 5.000000E-06 FOR ALL ASSIGNED CONDITIONS

 *C              *CH             CH2             CH3             CH2OH          
 CH3O            CH4             CH3OH           CH3OOH          COOH           
 *C2             C2H             C2H2,acetylene  C2H2,vinylidene CH2CO,ketene   
 O(CH)2O         HO(CO)2OH       C2H3,vinyl      CH3CO,acetyl    C2H4           
 C2H4O,ethylen-o CH3CHO,ethanal  CH3COOH         OHCH2COOH       C2H5           
 C2H6            C2H5OH          CH3OCH3         CH3O2CH3        C2O            
 *C3             C3H3,1-propynl  C3H3,2-propynl  C3H4,allene     C3H4,propyne   
 C3H4,cyclo-     C3H5,allyl      C3H6,propylene  C3H6,cyclo-     C3H6O,propylox 
 C3H6O,acetone   C3H6O,propanal  C3H7,n-propyl   C3H7,i-propyl   C3H8           
 C3H8O,1propanol C3H8O,2propanol C3O2            *C4             C4H2,butadiyne 
 C4H4,1,3-cyclo- C4H6,butadiene  C4H6,1butyne    C4H6,2butyne    C4H6,cyclo-    
 C4H8,1-butene   C4H8,cis2-buten C4H8,tr2-butene C4H8,isobutene  C4H8,cyclo-    
 (CH3COOH)2      C4H9,n-butyl    C4H9,i-butyl    C4H9,s-butyl    C4H9,t-butyl   
 C4H10,n-butane  C4H10,isobutane *C5             C5H6,1,3cyclo-  C5H8,cyclo-    
 C5H10,1-pentene C5H10,cyclo-    C5H11,pentyl    C5H11,t-pentyl  C5H12,n-pentane
 C5H12,i-pentane CH3C(CH3)2CH3   C6H2            C6H5,phenyl     C6H5O,phenoxy  
 C6H6            C6H5OH,phenol   C6H10,cyclo-    C6H12,1-hexene  C6H12,cyclo-   
 C6H13,n-hexyl   C6H14,n-hexane  C7H7,benzyl     C7H8            C7H8O,cresol-mx
 C7H14,1-heptene C7H15,n-heptyl  C7H16,n-heptane C7H16,2-methylh C8H8,styrene   
 C8H10,ethylbenz C8H16,1-octene  C8H17,n-octyl   C8H18,n-octane  C8H18,isooctane
 C9H19,n-nonyl   C10H8,naphthale C10H21,n-decyl  C12H9,o-bipheny C12H10,biphenyl
 HCCO            HO2             HCHO,formaldehy HCOOH           H2O2           
 (HCOOH)2        O3              C(gr)           H2O(cr)         H2O(L)         

 NOTE. WEIGHT FRACTION OF FUEL IN TOTAL FUELS AND OF OXIDANT IN TOTAL OXIDANTS






 WARNING!!  ASSIGNED pip =   0.00000 IS NOT PERMITTED
 TO BE LESS THAN  Pinj/Pc =  1.00255. POINT OMITTED (ROCKET)





              THEORETICAL ROCKET PERFORMANCE ASSUMING EQUILIBRIUM

            COMPOSITION DURING EXPANSION FROM FINITE AREA COMBUSTOR

 Pin =   155.0 PSIA
 Ac/At = 12.7134      Pinj/Pinf =  1.001273
 CASE =                

             REACTANT                    WT FRACTION      ENERGY      TEMP
                                          (SEE NOTE)     KJ/KG-MOL      K  
 OXIDANT     O2                           0.9806603      2644.389    387.300
 OXIDANT     H2O                          0.0116038   -238808.628    387.300
 OXIDANT     CO2                          0.0077359   -390028.202    387.300
 FUEL        PMMA                         1.0000000   -442140.000    293.150

 O/F=    1.12966  %FUEL= 46.955839  R,EQ.RATIO= 1.560315  PHI,EQ.RATIO= 1.731074

                 INJECTOR  COMB END  THROAT
 Pinj/P            1.0000   1.0026   1.7555
 P, BAR            10.690   10.663   6.0895
 T, K             3029.98  3029.42  2822.41
 RHO, KG/CU M    9.7527-1 9.7298-1 6.0112-1
 H, KJ/KG        -2148.67 -2150.07 -2740.68
 U, KJ/KG        -3244.78 -3245.96 -3753.69
 G, KJ/KG        -37181.2 -37177.6 -35374.6
 S, KJ/(KG)(K)    11.5620  11.5624  11.5624

 M, (1/n)          22.984   22.984   23.166
 (dLV/dLP)t      -1.01092 -1.01092 -1.00647
 (dLV/dLT)p        1.2223   1.2221   1.1399
 Cp, KJ/(KG)(K)    3.6573   3.6567   3.0907
 GAMMAs            1.1585   1.1585   1.1688
 SON VEL,M/SEC     1126.9   1126.8   1088.1
 MACH NUMBER        0.000    0.047    1.000

 PERFORMANCE PARAMETERS

 Ae/At                      12.714   1.0000
 CSTAR, M/SEC               1632.2   1632.2
 CF                         0.0324   0.6666
 Ivac, M/SEC               20779.3   2019.1
 Isp, M/SEC                   52.9   1088.1


 MOLE FRACTIONS

 *CO              0.41710  0.41709  0.41517
 *CO2             0.12403  0.12404  0.13023
 *H               0.01918  0.01917  0.01319
 HCO              0.00001  0.00001  0.00000
 *H2              0.13098  0.13099  0.13479
 H2O              0.29064  0.29065  0.29660
 *O               0.00129  0.00128  0.00051
 *OH              0.01565  0.01564  0.00906
 *O2              0.00113  0.00113  0.00045

  * THERMODYNAMIC PROPERTIES FITTED TO 20000.K

    PRODUCTS WHICH WERE CONSIDERED BUT WHOSE MOLE FRACTIONS
    WERE LESS THAN 5.000000E-06 FOR ALL ASSIGNED CONDITIONS

 *C              *CH             CH2             CH3             CH2OH          
 CH3O            CH4             CH3OH           CH3OOH          COOH           
 *C2             C2H             C2H2,acetylene  C2H2,vinylidene CH2CO,ketene   
 O(CH)2O         HO(CO)2OH       C2H3,vinyl      CH3CO,acetyl    C2H4           
 C2H4O,ethylen-o CH3CHO,ethanal  CH3COOH         OHCH2COOH       C2H5           
 C2H6            C2H5OH          CH3OCH3         CH3O2CH3        C2O            
 *C3             C3H3,1-propynl  C3H3,2-propynl  C3H4,allene     C3H4,propyne   
 C3H4,cyclo-     C3H5,allyl      C3H6,propylene  C3H6,cyclo-     C3H6O,propylox 
 C3H6O,acetone   C3H6O,propanal  C3H7,n-propyl   C3H7,i-propyl   C3H8           
 C3H8O,1propanol C3H8O,2propanol C3O2            *C4             C4H2,butadiyne 
 C4H4,1,3-cyclo- C4H6,butadiene  C4H6,1butyne    C4H6,2butyne    C4H6,cyclo-    
 C4H8,1-butene   C4H8,cis2-buten C4H8,tr2-butene C4H8,isobutene  C4H8,cyclo-    
 (CH3COOH)2      C4H9,n-butyl    C4H9,i-butyl    C4H9,s-butyl    C4H9,t-butyl   
 C4H10,n-butane  C4H10,isobutane *C5             C5H6,1,3cyclo-  C5H8,cyclo-    
 C5H10,1-pentene C5H10,cyclo-    C5H11,pentyl    C5H11,t-pentyl  C5H12,n-pentane
 C5H12,i-pentane CH3C(CH3)2CH3   C6H2            C6H5,phenyl     C6H5O,phenoxy  
 C6H6            C6H5OH,phenol   C6H10,cyclo-    C6H12,1-hexene  C6H12,cyclo-   
 C6H13,n-hexyl   C6H14,n-hexane  C7H7,benzyl     C7H8            C7H8O,cresol-mx
 C7H14,1-heptene C7H15,n-heptyl  C7H16,n-heptane C7H16,2-methylh C8H8,styrene   
 C8H10,ethylbenz C8H16,1-octene  C8H17,n-octyl   C8H18,n-octane  C8H18,isooctane
 C9H19,n-nonyl   C10H8,naphthale C10H21,n-decyl  C12H9,o-bipheny C12H10,biphenyl
 HCCO            HO2             HCHO,formaldehy HCOOH           H2O2           
 (HCOOH)2        O3              C(gr)           H2O(cr)         H2O(L)         

 NOTE. WEIGHT FRACTION OF FUEL IN TOTAL FUELS AND OF OXIDANT IN TOTAL OXIDANTS






 WARNING!!  ASSIGNED pip =   0.00000 IS NOT PERMITTED
 TO BE LESS THAN  Pinj/Pc =  1.00255. POINT OMITTED (ROCKET)





              THEORETICAL ROCKET PERFORMANCE ASSUMING EQUILIBRIUM

            COMPOSITION DURING EXPANSION FROM FINITE AREA COMBUSTOR

 Pin =   155.0 PSIA
 Ac/At = 12.7134      Pinj/Pinf =  1.001273
 CASE =                

             REACTANT                    WT FRACTION      ENERGY      TEMP
                                          (SEE NOTE)     KJ/KG-MOL      K  
 OXIDANT     O2                           0.9806603      2644.389    387.300
 OXIDANT     H2O                          0.0116038   -238808.628    387.300
 OXIDANT     CO2                          0.0077359   -390028.202    387.300
 FUEL        PMMA                         1.0000000   -442140.000    293.150

 O/F=    1.12966  %FUEL= 46.955839  R,EQ.RATIO= 1.560315  PHI,EQ.RATIO= 1.731074

                 INJECTOR  COMB END  THROAT
 Pinj/P            1.0000   1.0026   1.7555
 P, BAR            10.690   10.663   6.0895
 T, K             3029.98  3029.42  2822.41
 RHO, KG/CU M    9.7527-1 9.7298-1 6.0112-1
 H, KJ/KG        -2148.67 -2150.07 -2740.68
 U, KJ/KG        -3244.78 -3245.96 -3753.69
 G, KJ/KG        -37181.2 -37177.6 -35374.6
 S, KJ/(KG)(K)    11.5620  11.5624  11.5624

 M, (1/n)          22.984   22.984   23.166
 (dLV/dLP)t      -1.01092 -1.01092 -1.00647
 (dLV/dLT)p        1.2223   1.2221   1.1399
 Cp, KJ/(KG)(K)    3.6573   3.6567   3.0907
 GAMMAs            1.1585   1.1585   1.1688
 SON VEL,M/SEC     1126.9   1126.8   1088.1
 MACH NUMBER        0.000    0.047    1.000

 PERFORMANCE PARAMETERS

 Ae/At                      12.714   1.0000
 CSTAR, M/SEC               1632.2   1632.2
 CF                         0.0324   0.6666
 Ivac, M/SEC               20779.3   2019.1
 Isp, M/SEC                   52.9   1088.1


 MOLE FRACTIONS

 *CO              0.41710  0.41709  0.41517
 *CO2             0.12403  0.12404  0.13023
 *H               0.01918  0.01917  0.01319
 HCO              0.00001  0.00001  0.00000
 *H2              0.13098  0.13099  0.13479
 H2O              0.29064  0.29065  0.29660
 *O               0.00129  0.00128  0.00051
 *OH              0.01565  0.01564  0.00906
 *O2              0.00113  0.00113  0.00045

  * THERMODYNAMIC PROPERTIES FITTED TO 20000.K

    PRODUCTS WHICH WERE CONSIDERED BUT WHOSE MOLE FRACTIONS
    WERE LESS THAN 5.000000E-06 FOR ALL ASSIGNED CONDITIONS

 *C              *CH             CH2             CH3             CH2OH          
 CH3O            CH4             CH3OH           CH3OOH          COOH           
 *C2             C2H             C2H2,acetylene  C2H2,vinylidene CH2CO,ketene   
 O(CH)2O         HO(CO)2OH       C2H3,vinyl      CH3CO,acetyl    C2H4           
 C2H4O,ethylen-o CH3CHO,ethanal  CH3COOH         OHCH2COOH       C2H5           
 C2H6            C2H5OH          CH3OCH3         CH3O2CH3        C2O            
 *C3             C3H3,1-propynl  C3H3,2-propynl  C3H4,allene     C3H4,propyne   
 C3H4,cyclo-     C3H5,allyl      C3H6,propylene  C3H6,cyclo-     C3H6O,propylox 
 C3H6O,acetone   C3H6O,propanal  C3H7,n-propyl   C3H7,i-propyl   C3H8           
 C3H8O,1propanol C3H8O,2propanol C3O2            *C4             C4H2,butadiyne 
 C4H4,1,3-cyclo- C4H6,butadiene  C4H6,1butyne    C4H6,2butyne    C4H6,cyclo-    
 C4H8,1-butene   C4H8,cis2-buten C4H8,tr2-butene C4H8,isobutene  C4H8,cyclo-    
 (CH3COOH)2      C4H9,n-butyl    C4H9,i-butyl    C4H9,s-butyl    C4H9,t-butyl   
 C4H10,n-butane  C4H10,isobutane *C5             C5H6,1,3cyclo-  C5H8,cyclo-    
 C5H10,1-pentene C5H10,cyclo-    C5H11,pentyl    C5H11,t-pentyl  C5H12,n-pentane
 C5H12,i-pentane CH3C(CH3)2CH3   C6H2            C6H5,phenyl     C6H5O,phenoxy  
 C6H6            C6H5OH,phenol   C6H10,cyclo-    C6H12,1-hexene  C6H12,cyclo-   
 C6H13,n-hexyl   C6H14,n-hexane  C7H7,benzyl     C7H8            C7H8O,cresol-mx
 C7H14,1-heptene C7H15,n-heptyl  C7H16,n-heptane C7H16,2-methylh C8H8,styrene   
 C8H10,ethylbenz C8H16,1-octene  C8H17,n-octyl   C8H18,n-octane  C8H18,isooctane
 C9H19,n-nonyl   C10H8,naphthale C10H21,n-decyl  C12H9,o-bipheny C12H10,biphenyl
 HCCO            HO2             HCHO,formaldehy HCOOH           H2O2           
 (HCOOH)2        O3              C(gr)           H2O(cr)         H2O(L)         

 NOTE. WEIGHT FRACTION OF FUEL IN TOTAL FUELS AND OF OXIDANT IN TOTAL OXIDANTS






 WARNING!!  ASSIGNED pip =   0.00000 IS NOT PERMITTED
 TO BE LESS THAN  Pinj/Pc =  1.00255. POINT OMITTED (ROCKET)





              THEORETICAL ROCKET PERFORMANCE ASSUMING EQUILIBRIUM

            COMPOSITION DURING EXPANSION FROM FINITE AREA COMBUSTOR

 Pin =   155.0 PSIA
 Ac/At = 12.7134      Pinj/Pinf =  1.001273
 CASE =                

             REACTANT                    WT FRACTION      ENERGY      TEMP
                                          (SEE NOTE)     KJ/KG-MOL      K  
 OXIDANT     O2                           0.9806603      2644.389    387.300
 OXIDANT     H2O                          0.0116038   -238808.628    387.300
 OXIDANT     CO2                          0.0077359   -390028.202    387.300
 FUEL        PMMA                         1.0000000   -442140.000    293.150

 O/F=    1.12966  %FUEL= 46.955839  R,EQ.RATIO= 1.560315  PHI,EQ.RATIO= 1.731074

                 INJECTOR  COMB END  THROAT
 Pinj/P            1.0000   1.0026   1.7555
 P, BAR            10.690   10.663   6.0895
 T, K             3029.98  3029.42  2822.41
 RHO, KG/CU M    9.7527-1 9.7298-1 6.0112-1
 H, KJ/KG        -2148.67 -2150.07 -2740.68
 U, KJ/KG        -3244.78 -3245.96 -3753.69
 G, KJ/KG        -37181.2 -37177.6 -35374.6
 S, KJ/(KG)(K)    11.5620  11.5624  11.5624

 M, (1/n)          22.984   22.984   23.166
 (dLV/dLP)t      -1.01092 -1.01092 -1.00647
 (dLV/dLT)p        1.2223   1.2221   1.1399
 Cp, KJ/(KG)(K)    3.6573   3.6567   3.0907
 GAMMAs            1.1585   1.1585   1.1688
 SON VEL,M/SEC     1126.9   1126.8   1088.1
 MACH NUMBER        0.000    0.047    1.000

 PERFORMANCE PARAMETERS

 Ae/At                      12.714   1.0000
 CSTAR, M/SEC               1632.2   1632.2
 CF                         0.0324   0.6666
 Ivac, M/SEC               20779.3   2019.1
 Isp, M/SEC                   52.9   1088.1


 MOLE FRACTIONS

 *CO              0.41710  0.41709  0.41517
 *CO2             0.12403  0.12404  0.13023
 *H               0.01918  0.01917  0.01319
 HCO              0.00001  0.00001  0.00000
 *H2              0.13098  0.13099  0.13479
 H2O              0.29064  0.29065  0.29660
 *O               0.00129  0.00128  0.00051
 *OH              0.01565  0.01564  0.00906
 *O2              0.00113  0.00113  0.00045

  * THERMODYNAMIC PROPERTIES FITTED TO 20000.K

    PRODUCTS WHICH WERE CONSIDERED BUT WHOSE MOLE FRACTIONS
    WERE LESS THAN 5.000000E-06 FOR ALL ASSIGNED CONDITIONS

 *C              *CH             CH2             CH3             CH2OH          
 CH3O            CH4             CH3OH           CH3OOH          COOH           
 *C2             C2H             C2H2,acetylene  C2H2,vinylidene CH2CO,ketene   
 O(CH)2O         HO(CO)2OH       C2H3,vinyl      CH3CO,acetyl    C2H4           
 C2H4O,ethylen-o CH3CHO,ethanal  CH3COOH         OHCH2COOH       C2H5           
 C2H6            C2H5OH          CH3OCH3         CH3O2CH3        C2O            
 *C3             C3H3,1-propynl  C3H3,2-propynl  C3H4,allene     C3H4,propyne   
 C3H4,cyclo-     C3H5,allyl      C3H6,propylene  C3H6,cyclo-     C3H6O,propylox 
 C3H6O,acetone   C3H6O,propanal  C3H7,n-propyl   C3H7,i-propyl   C3H8           
 C3H8O,1propanol C3H8O,2propanol C3O2            *C4             C4H2,butadiyne 
 C4H4,1,3-cyclo- C4H6,butadiene  C4H6,1butyne    C4H6,2butyne    C4H6,cyclo-    
 C4H8,1-butene   C4H8,cis2-buten C4H8,tr2-butene C4H8,isobutene  C4H8,cyclo-    
 (CH3COOH)2      C4H9,n-butyl    C4H9,i-butyl    C4H9,s-butyl    C4H9,t-butyl   
 C4H10,n-butane  C4H10,isobutane *C5             C5H6,1,3cyclo-  C5H8,cyclo-    
 C5H10,1-pentene C5H10,cyclo-    C5H11,pentyl    C5H11,t-pentyl  C5H12,n-pentane
 C5H12,i-pentane CH3C(CH3)2CH3   C6H2            C6H5,phenyl     C6H5O,phenoxy  
 C6H6            C6H5OH,phenol   C6H10,cyclo-    C6H12,1-hexene  C6H12,cyclo-   
 C6H13,n-hexyl   C6H14,n-hexane  C7H7,benzyl     C7H8            C7H8O,cresol-mx
 C7H14,1-heptene C7H15,n-heptyl  C7H16,n-heptane C7H16,2-methylh C8H8,styrene   
 C8H10,ethylbenz C8H16,1-octene  C8H17,n-octyl   C8H18,n-octane  C8H18,isooctane
 C9H19,n-nonyl   C10H8,naphthale C10H21,n-decyl  C12H9,o-bipheny C12H10,biphenyl
 HCCO            HO2             HCHO,formaldehy HCOOH           H2O2           
 (HCOOH)2        O3              C(gr)           H2O(cr)         H2O(L)         

 NOTE. WEIGHT FRACTION OF FUEL IN TOTAL FUELS AND OF OXIDANT IN TOTAL OXIDANTS






 WARNING!!  ASSIGNED pip =   0.00000 IS NOT PERMITTED
 TO BE LESS THAN  Pinj/Pc =  1.00255. POINT OMITTED (ROCKET)





              THEORETICAL ROCKET PERFORMANCE ASSUMING EQUILIBRIUM

            COMPOSITION DURING EXPANSION FROM FINITE AREA COMBUSTOR

 Pin =   155.0 PSIA
 Ac/At = 12.7134      Pinj/Pinf =  1.001273
 CASE =                

             REACTANT                    WT FRACTION      ENERGY      TEMP
                                          (SEE NOTE)     KJ/KG-MOL      K  
 OXIDANT     O2                           0.9806603      2644.389    387.300
 OXIDANT     H2O                          0.0116038   -238808.628    387.300
 OXIDANT     CO2                          0.0077359   -390028.202    387.300
 FUEL        PMMA                         1.0000000   -442140.000    293.150

 O/F=    1.12966  %FUEL= 46.955839  R,EQ.RATIO= 1.560315  PHI,EQ.RATIO= 1.731074

                 INJECTOR  COMB END  THROAT
 Pinj/P            1.0000   1.0026   1.7555
 P, BAR            10.690   10.663   6.0895
 T, K             3029.98  3029.42  2822.41
 RHO, KG/CU M    9.7527-1 9.7298-1 6.0112-1
 H, KJ/KG        -2148.67 -2150.07 -2740.68
 U, KJ/KG        -3244.78 -3245.96 -3753.69
 G, KJ/KG        -37181.2 -37177.6 -35374.6
 S, KJ/(KG)(K)    11.5620  11.5624  11.5624

 M, (1/n)          22.984   22.984   23.166
 (dLV/dLP)t      -1.01092 -1.01092 -1.00647
 (dLV/dLT)p        1.2223   1.2221   1.1399
 Cp, KJ/(KG)(K)    3.6573   3.6567   3.0907
 GAMMAs            1.1585   1.1585   1.1688
 SON VEL,M/SEC     1126.9   1126.8   1088.1
 MACH NUMBER        0.000    0.047    1.000

 PERFORMANCE PARAMETERS

 Ae/At                      12.714   1.0000
 CSTAR, M/SEC               1632.2   1632.2
 CF                         0.0324   0.6666
 Ivac, M/SEC               20779.3   2019.1
 Isp, M/SEC                   52.9   1088.1


 MOLE FRACTIONS

 *CO              0.41710  0.41709  0.41517
 *CO2             0.12403  0.12404  0.13023
 *H               0.01918  0.01917  0.01319
 HCO              0.00001  0.00001  0.00000
 *H2              0.13098  0.13099  0.13479
 H2O              0.29064  0.29065  0.29660
 *O               0.00129  0.00128  0.00051
 *OH              0.01565  0.01564  0.00906
 *O2              0.00113  0.00113  0.00045

  * THERMODYNAMIC PROPERTIES FITTED TO 20000.K

    PRODUCTS WHICH WERE CONSIDERED BUT WHOSE MOLE FRACTIONS
    WERE LESS THAN 5.000000E-06 FOR ALL ASSIGNED CONDITIONS

 *C              *CH             CH2             CH3             CH2OH          
 CH3O            CH4             CH3OH           CH3OOH          COOH           
 *C2             C2H             C2H2,acetylene  C2H2,vinylidene CH2CO,ketene   
 O(CH)2O         HO(CO)2OH       C2H3,vinyl      CH3CO,acetyl    C2H4           
 C2H4O,ethylen-o CH3CHO,ethanal  CH3COOH         OHCH2COOH       C2H5           
 C2H6            C2H5OH          CH3OCH3         CH3O2CH3        C2O            
 *C3             C3H3,1-propynl  C3H3,2-propynl  C3H4,allene     C3H4,propyne   
 C3H4,cyclo-     C3H5,allyl      C3H6,propylene  C3H6,cyclo-     C3H6O,propylox 
 C3H6O,acetone   C3H6O,propanal  C3H7,n-propyl   C3H7,i-propyl   C3H8           
 C3H8O,1propanol C3H8O,2propanol C3O2            *C4             C4H2,butadiyne 
 C4H4,1,3-cyclo- C4H6,butadiene  C4H6,1butyne    C4H6,2butyne    C4H6,cyclo-    
 C4H8,1-butene   C4H8,cis2-buten C4H8,tr2-butene C4H8,isobutene  C4H8,cyclo-    
 (CH3COOH)2      C4H9,n-butyl    C4H9,i-butyl    C4H9,s-butyl    C4H9,t-butyl   
 C4H10,n-butane  C4H10,isobutane *C5             C5H6,1,3cyclo-  C5H8,cyclo-    
 C5H10,1-pentene C5H10,cyclo-    C5H11,pentyl    C5H11,t-pentyl  C5H12,n-pentane
 C5H12,i-pentane CH3C(CH3)2CH3   C6H2            C6H5,phenyl     C6H5O,phenoxy  
 C6H6            C6H5OH,phenol   C6H10,cyclo-    C6H12,1-hexene  C6H12,cyclo-   
 C6H13,n-hexyl   C6H14,n-hexane  C7H7,benzyl     C7H8            C7H8O,cresol-mx
 C7H14,1-heptene C7H15,n-heptyl  C7H16,n-heptane C7H16,2-methylh C8H8,styrene   
 C8H10,ethylbenz C8H16,1-octene  C8H17,n-octyl   C8H18,n-octane  C8H18,isooctane
 C9H19,n-nonyl   C10H8,naphthale C10H21,n-decyl  C12H9,o-bipheny C12H10,biphenyl
 HCCO            HO2             HCHO,formaldehy HCOOH           H2O2           
 (HCOOH)2        O3              C(gr)           H2O(cr)         H2O(L)         

 NOTE. WEIGHT FRACTION OF FUEL IN TOTAL FUELS AND OF OXIDANT IN TOTAL OXIDANTS






 WARNING!!  ASSIGNED pip =   0.00000 IS NOT PERMITTED
 TO BE LESS THAN  Pinj/Pc =  1.00255. POINT OMITTED (ROCKET)





              THEORETICAL ROCKET PERFORMANCE ASSUMING EQUILIBRIUM

            COMPOSITION DURING EXPANSION FROM FINITE AREA COMBUSTOR

 Pin =   155.0 PSIA
 Ac/At = 12.7134      Pinj/Pinf =  1.001273
 CASE =                

             REACTANT                    WT FRACTION      ENERGY      TEMP
                                          (SEE NOTE)     KJ/KG-MOL      K  
 OXIDANT     O2                           0.9806603      2644.389    387.300
 OXIDANT     H2O                          0.0116038   -238808.628    387.300
 OXIDANT     CO2                          0.0077359   -390028.202    387.300
 FUEL        PMMA                         1.0000000   -442140.000    293.150

 O/F=    1.12966  %FUEL= 46.955839  R,EQ.RATIO= 1.560315  PHI,EQ.RATIO= 1.731074

                 INJECTOR  COMB END  THROAT
 Pinj/P            1.0000   1.0026   1.7555
 P, BAR            10.690   10.663   6.0895
 T, K             3029.98  3029.42  2822.41
 RHO, KG/CU M    9.7527-1 9.7298-1 6.0112-1
 H, KJ/KG        -2148.67 -2150.07 -2740.68
 U, KJ/KG        -3244.78 -3245.96 -3753.69
 G, KJ/KG        -37181.2 -37177.6 -35374.6
 S, KJ/(KG)(K)    11.5620  11.5624  11.5624

 M, (1/n)          22.984   22.984   23.166
 (dLV/dLP)t      -1.01092 -1.01092 -1.00647
 (dLV/dLT)p        1.2223   1.2221   1.1399
 Cp, KJ/(KG)(K)    3.6573   3.6567   3.0907
 GAMMAs            1.1585   1.1585   1.1688
 SON VEL,M/SEC     1126.9   1126.8   1088.1
 MACH NUMBER        0.000    0.047    1.000

 PERFORMANCE PARAMETERS

 Ae/At                      12.714   1.0000
 CSTAR, M/SEC               1632.2   1632.2
 CF                         0.0324   0.6666
 Ivac, M/SEC               20779.3   2019.1
 Isp, M/SEC                   52.9   1088.1


 MOLE FRACTIONS

 *CO              0.41710  0.41709  0.41517
 *CO2             0.12403  0.12404  0.13023
 *H               0.01918  0.01917  0.01319
 HCO              0.00001  0.00001  0.00000
 *H2              0.13098  0.13099  0.13479
 H2O              0.29064  0.29065  0.29660
 *O               0.00129  0.00128  0.00051
 *OH              0.01565  0.01564  0.00906
 *O2              0.00113  0.00113  0.00045

  * THERMODYNAMIC PROPERTIES FITTED TO 20000.K

    PRODUCTS WHICH WERE CONSIDERED BUT WHOSE MOLE FRACTIONS
    WERE LESS THAN 5.000000E-06 FOR ALL ASSIGNED CONDITIONS

 *C              *CH             CH2             CH3             CH2OH          
 CH3O            CH4             CH3OH           CH3OOH          COOH           
 *C2             C2H             C2H2,acetylene  C2H2,vinylidene CH2CO,ketene   
 O(CH)2O         HO(CO)2OH       C2H3,vinyl      CH3CO,acetyl    C2H4           
 C2H4O,ethylen-o CH3CHO,ethanal  CH3COOH         OHCH2COOH       C2H5           
 C2H6            C2H5OH          CH3OCH3         CH3O2CH3        C2O            
 *C3             C3H3,1-propynl  C3H3,2-propynl  C3H4,allene     C3H4,propyne   
 C3H4,cyclo-     C3H5,allyl      C3H6,propylene  C3H6,cyclo-     C3H6O,propylox 
 C3H6O,acetone   C3H6O,propanal  C3H7,n-propyl   C3H7,i-propyl   C3H8           
 C3H8O,1propanol C3H8O,2propanol C3O2            *C4             C4H2,butadiyne 
 C4H4,1,3-cyclo- C4H6,butadiene  C4H6,1butyne    C4H6,2butyne    C4H6,cyclo-    
 C4H8,1-butene   C4H8,cis2-buten C4H8,tr2-butene C4H8,isobutene  C4H8,cyclo-    
 (CH3COOH)2      C4H9,n-butyl    C4H9,i-butyl    C4H9,s-butyl    C4H9,t-butyl   
 C4H10,n-butane  C4H10,isobutane *C5             C5H6,1,3cyclo-  C5H8,cyclo-    
 C5H10,1-pentene C5H10,cyclo-    C5H11,pentyl    C5H11,t-pentyl  C5H12,n-pentane
 C5H12,i-pentane CH3C(CH3)2CH3   C6H2            C6H5,phenyl     C6H5O,phenoxy  
 C6H6            C6H5OH,phenol   C6H10,cyclo-    C6H12,1-hexene  C6H12,cyclo-   
 C6H13,n-hexyl   C6H14,n-hexane  C7H7,benzyl     C7H8            C7H8O,cresol-mx
 C7H14,1-heptene C7H15,n-heptyl  C7H16,n-heptane C7H16,2-methylh C8H8,styrene   
 C8H10,ethylbenz C8H16,1-octene  C8H17,n-octyl   C8H18,n-octane  C8H18,isooctane
 C9H19,n-nonyl   C10H8,naphthale C10H21,n-decyl  C12H9,o-bipheny C12H10,biphenyl
 HCCO            HO2             HCHO,formaldehy HCOOH           H2O2           
 (HCOOH)2        O3              C(gr)           H2O(cr)         H2O(L)         

 NOTE. WEIGHT FRACTION OF FUEL IN TOTAL FUELS AND OF OXIDANT IN TOTAL OXIDANTS






 WARNING!!  ASSIGNED pip =   0.00000 IS NOT PERMITTED
 TO BE LESS THAN  Pinj/Pc =  1.00255. POINT OMITTED (ROCKET)





              THEORETICAL ROCKET PERFORMANCE ASSUMING EQUILIBRIUM

            COMPOSITION DURING EXPANSION FROM FINITE AREA COMBUSTOR

 Pin =   155.0 PSIA
 Ac/At = 12.7134      Pinj/Pinf =  1.001273
 CASE =                

             REACTANT                    WT FRACTION      ENERGY      TEMP
                                          (SEE NOTE)     KJ/KG-MOL      K  
 OXIDANT     O2                           0.9806603      2644.389    387.300
 OXIDANT     H2O                          0.0116038   -238808.628    387.300
 OXIDANT     CO2                          0.0077359   -390028.202    387.300
 FUEL        PMMA                         1.0000000   -442140.000    293.150

 O/F=    1.12966  %FUEL= 46.955839  R,EQ.RATIO= 1.560315  PHI,EQ.RATIO= 1.731074

                 INJECTOR  COMB END  THROAT
 Pinj/P            1.0000   1.0026   1.7555
 P, BAR            10.690   10.663   6.0895
 T, K             3029.98  3029.42  2822.41
 RHO, KG/CU M    9.7527-1 9.7298-1 6.0112-1
 H, KJ/KG        -2148.67 -2150.07 -2740.68
 U, KJ/KG        -3244.78 -3245.96 -3753.69
 G, KJ/KG        -37181.2 -37177.6 -35374.6
 S, KJ/(KG)(K)    11.5620  11.5624  11.5624

 M, (1/n)          22.984   22.984   23.166
 (dLV/dLP)t      -1.01092 -1.01092 -1.00647
 (dLV/dLT)p        1.2223   1.2221   1.1399
 Cp, KJ/(KG)(K)    3.6573   3.6567   3.0907
 GAMMAs            1.1585   1.1585   1.1688
 SON VEL,M/SEC     1126.9   1126.8   1088.1
 MACH NUMBER        0.000    0.047    1.000

 PERFORMANCE PARAMETERS

 Ae/At                      12.714   1.0000
 CSTAR, M/SEC               1632.2   1632.2
 CF                         0.0324   0.6666
 Ivac, M/SEC               20779.3   2019.1
 Isp, M/SEC                   52.9   1088.1


 MOLE FRACTIONS

 *CO              0.41710  0.41709  0.41517
 *CO2             0.12403  0.12404  0.13023
 *H               0.01918  0.01917  0.01319
 HCO              0.00001  0.00001  0.00000
 *H2              0.13098  0.13099  0.13479
 H2O              0.29064  0.29065  0.29660
 *O               0.00129  0.00128  0.00051
 *OH              0.01565  0.01564  0.00906
 *O2              0.00113  0.00113  0.00045

  * THERMODYNAMIC PROPERTIES FITTED TO 20000.K

    PRODUCTS WHICH WERE CONSIDERED BUT WHOSE MOLE FRACTIONS
    WERE LESS THAN 5.000000E-06 FOR ALL ASSIGNED CONDITIONS

 *C              *CH             CH2             CH3             CH2OH          
 CH3O            CH4             CH3OH           CH3OOH          COOH           
 *C2             C2H             C2H2,acetylene  C2H2,vinylidene CH2CO,ketene   
 O(CH)2O         HO(CO)2OH       C2H3,vinyl      CH3CO,acetyl    C2H4           
 C2H4O,ethylen-o CH3CHO,ethanal  CH3COOH         OHCH2COOH       C2H5           
 C2H6            C2H5OH          CH3OCH3         CH3O2CH3        C2O            
 *C3             C3H3,1-propynl  C3H3,2-propynl  C3H4,allene     C3H4,propyne   
 C3H4,cyclo-     C3H5,allyl      C3H6,propylene  C3H6,cyclo-     C3H6O,propylox 
 C3H6O,acetone   C3H6O,propanal  C3H7,n-propyl   C3H7,i-propyl   C3H8           
 C3H8O,1propanol C3H8O,2propanol C3O2            *C4             C4H2,butadiyne 
 C4H4,1,3-cyclo- C4H6,butadiene  C4H6,1butyne    C4H6,2butyne    C4H6,cyclo-    
 C4H8,1-butene   C4H8,cis2-buten C4H8,tr2-butene C4H8,isobutene  C4H8,cyclo-    
 (CH3COOH)2      C4H9,n-butyl    C4H9,i-butyl    C4H9,s-butyl    C4H9,t-butyl   
 C4H10,n-butane  C4H10,isobutane *C5             C5H6,1,3cyclo-  C5H8,cyclo-    
 C5H10,1-pentene C5H10,cyclo-    C5H11,pentyl    C5H11,t-pentyl  C5H12,n-pentane
 C5H12,i-pentane CH3C(CH3)2CH3   C6H2            C6H5,phenyl     C6H5O,phenoxy  
 C6H6            C6H5OH,phenol   C6H10,cyclo-    C6H12,1-hexene  C6H12,cyclo-   
 C6H13,n-hexyl   C6H14,n-hexane  C7H7,benzyl     C7H8            C7H8O,cresol-mx
 C7H14,1-heptene C7H15,n-heptyl  C7H16,n-heptane C7H16,2-methylh C8H8,styrene   
 C8H10,ethylbenz C8H16,1-octene  C8H17,n-octyl   C8H18,n-octane  C8H18,isooctane
 C9H19,n-nonyl   C10H8,naphthale C10H21,n-decyl  C12H9,o-bipheny C12H10,biphenyl
 HCCO            HO2             HCHO,formaldehy HCOOH           H2O2           
 (HCOOH)2        O3              C(gr)           H2O(cr)         H2O(L)         

 NOTE. WEIGHT FRACTION OF FUEL IN TOTAL FUELS AND OF OXIDANT IN TOTAL OXIDANTS






 WARNING!!  ASSIGNED pip =   0.00000 IS NOT PERMITTED
 TO BE LESS THAN  Pinj/Pc =  1.00255. POINT OMITTED (ROCKET)





              THEORETICAL ROCKET PERFORMANCE ASSUMING EQUILIBRIUM

            COMPOSITION DURING EXPANSION FROM FINITE AREA COMBUSTOR

 Pin =   155.0 PSIA
 Ac/At = 12.7134      Pinj/Pinf =  1.001273
 CASE =                

             REACTANT                    WT FRACTION      ENERGY      TEMP
                                          (SEE NOTE)     KJ/KG-MOL      K  
 OXIDANT     O2                           0.9806603      2644.389    387.300
 OXIDANT     H2O                          0.0116038   -238808.628    387.300
 OXIDANT     CO2                          0.0077359   -390028.202    387.300
 FUEL        PMMA                         1.0000000   -442140.000    293.150

 O/F=    1.12966  %FUEL= 46.955839  R,EQ.RATIO= 1.560315  PHI,EQ.RATIO= 1.731074

                 INJECTOR  COMB END  THROAT
 Pinj/P            1.0000   1.0026   1.7555
 P, BAR            10.690   10.663   6.0895
 T, K             3029.98  3029.42  2822.41
 RHO, KG/CU M    9.7527-1 9.7298-1 6.0112-1
 H, KJ/KG        -2148.67 -2150.07 -2740.68
 U, KJ/KG        -3244.78 -3245.96 -3753.69
 G, KJ/KG        -37181.2 -37177.6 -35374.6
 S, KJ/(KG)(K)    11.5620  11.5624  11.5624

 M, (1/n)          22.984   22.984   23.166
 (dLV/dLP)t      -1.01092 -1.01092 -1.00647
 (dLV/dLT)p        1.2223   1.2221   1.1399
 Cp, KJ/(KG)(K)    3.6573   3.6567   3.0907
 GAMMAs            1.1585   1.1585   1.1688
 SON VEL,M/SEC     1126.9   1126.8   1088.1
 MACH NUMBER        0.000    0.047    1.000

 PERFORMANCE PARAMETERS

 Ae/At                      12.714   1.0000
 CSTAR, M/SEC               1632.2   1632.2
 CF                         0.0324   0.6666
 Ivac, M/SEC               20779.3   2019.1
 Isp, M/SEC                   52.9   1088.1


 MOLE FRACTIONS

 *CO              0.41710  0.41709  0.41517
 *CO2             0.12403  0.12404  0.13023
 *H               0.01918  0.01917  0.01319
 HCO              0.00001  0.00001  0.00000
 *H2              0.13098  0.13099  0.13479
 H2O              0.29064  0.29065  0.29660
 *O               0.00129  0.00128  0.00051
 *OH              0.01565  0.01564  0.00906
 *O2              0.00113  0.00113  0.00045

  * THERMODYNAMIC PROPERTIES FITTED TO 20000.K

    PRODUCTS WHICH WERE CONSIDERED BUT WHOSE MOLE FRACTIONS
    WERE LESS THAN 5.000000E-06 FOR ALL ASSIGNED CONDITIONS

 *C              *CH             CH2             CH3             CH2OH          
 CH3O            CH4             CH3OH           CH3OOH          COOH           
 *C2             C2H             C2H2,acetylene  C2H2,vinylidene CH2CO,ketene   
 O(CH)2O         HO(CO)2OH       C2H3,vinyl      CH3CO,acetyl    C2H4           
 C2H4O,ethylen-o CH3CHO,ethanal  CH3COOH         OHCH2COOH       C2H5           
 C2H6            C2H5OH          CH3OCH3         CH3O2CH3        C2O            
 *C3             C3H3,1-propynl  C3H3,2-propynl  C3H4,allene     C3H4,propyne   
 C3H4,cyclo-     C3H5,allyl      C3H6,propylene  C3H6,cyclo-     C3H6O,propylox 
 C3H6O,acetone   C3H6O,propanal  C3H7,n-propyl   C3H7,i-propyl   C3H8           
 C3H8O,1propanol C3H8O,2propanol C3O2            *C4             C4H2,butadiyne 
 C4H4,1,3-cyclo- C4H6,butadiene  C4H6,1butyne    C4H6,2butyne    C4H6,cyclo-    
 C4H8,1-butene   C4H8,cis2-buten C4H8,tr2-butene C4H8,isobutene  C4H8,cyclo-    
 (CH3COOH)2      C4H9,n-butyl    C4H9,i-butyl    C4H9,s-butyl    C4H9,t-butyl   
 C4H10,n-butane  C4H10,isobutane *C5             C5H6,1,3cyclo-  C5H8,cyclo-    
 C5H10,1-pentene C5H10,cyclo-    C5H11,pentyl    C5H11,t-pentyl  C5H12,n-pentane
 C5H12,i-pentane CH3C(CH3)2CH3   C6H2            C6H5,phenyl     C6H5O,phenoxy  
 C6H6            C6H5OH,phenol   C6H10,cyclo-    C6H12,1-hexene  C6H12,cyclo-   
 C6H13,n-hexyl   C6H14,n-hexane  C7H7,benzyl     C7H8            C7H8O,cresol-mx
 C7H14,1-heptene C7H15,n-heptyl  C7H16,n-heptane C7H16,2-methylh C8H8,styrene   
 C8H10,ethylbenz C8H16,1-octene  C8H17,n-octyl   C8H18,n-octane  C8H18,isooctane
 C9H19,n-nonyl   C10H8,naphthale C10H21,n-decyl  C12H9,o-bipheny C12H10,biphenyl
 HCCO            HO2             HCHO,formaldehy HCOOH           H2O2           
 (HCOOH)2        O3              C(gr)           H2O(cr)         H2O(L)         

 NOTE. WEIGHT FRACTION OF FUEL IN TOTAL FUELS AND OF OXIDANT IN TOTAL OXIDANTS






 WARNING!!  ASSIGNED pip =   0.00000 IS NOT PERMITTED
 TO BE LESS THAN  Pinj/Pc =  1.00255. POINT OMITTED (ROCKET)





              THEORETICAL ROCKET PERFORMANCE ASSUMING EQUILIBRIUM

            COMPOSITION DURING EXPANSION FROM FINITE AREA COMBUSTOR

 Pin =   155.0 PSIA
 Ac/At = 12.7134      Pinj/Pinf =  1.001273
 CASE =                

             REACTANT                    WT FRACTION      ENERGY      TEMP
                                          (SEE NOTE)     KJ/KG-MOL      K  
 OXIDANT     O2                           0.9806603      2644.389    387.300
 OXIDANT     H2O                          0.0116038   -238808.628    387.300
 OXIDANT     CO2                          0.0077359   -390028.202    387.300
 FUEL        PMMA                         1.0000000   -442140.000    293.150

 O/F=    1.12966  %FUEL= 46.955839  R,EQ.RATIO= 1.560315  PHI,EQ.RATIO= 1.731074

                 INJECTOR  COMB END  THROAT
 Pinj/P            1.0000   1.0026   1.7555
 P, BAR            10.690   10.663   6.0895
 T, K             3029.98  3029.42  2822.41
 RHO, KG/CU M    9.7527-1 9.7298-1 6.0112-1
 H, KJ/KG        -2148.67 -2150.07 -2740.68
 U, KJ/KG        -3244.78 -3245.96 -3753.69
 G, KJ/KG        -37181.2 -37177.6 -35374.6
 S, KJ/(KG)(K)    11.5620  11.5624  11.5624

 M, (1/n)          22.984   22.984   23.166
 (dLV/dLP)t      -1.01092 -1.01092 -1.00647
 (dLV/dLT)p        1.2223   1.2221   1.1399
 Cp, KJ/(KG)(K)    3.6573   3.6567   3.0907
 GAMMAs            1.1585   1.1585   1.1688
 SON VEL,M/SEC     1126.9   1126.8   1088.1
 MACH NUMBER        0.000    0.047    1.000

 PERFORMANCE PARAMETERS

 Ae/At                      12.714   1.0000
 CSTAR, M/SEC               1632.2   1632.2
 CF                         0.0324   0.6666
 Ivac, M/SEC               20779.3   2019.1
 Isp, M/SEC                   52.9   1088.1


 MOLE FRACTIONS

 *CO              0.41710  0.41709  0.41517
 *CO2             0.12403  0.12404  0.13023
 *H               0.01918  0.01917  0.01319
 HCO              0.00001  0.00001  0.00000
 *H2              0.13098  0.13099  0.13479
 H2O              0.29064  0.29065  0.29660
 *O               0.00129  0.00128  0.00051
 *OH              0.01565  0.01564  0.00906
 *O2              0.00113  0.00113  0.00045

  * THERMODYNAMIC PROPERTIES FITTED TO 20000.K

    PRODUCTS WHICH WERE CONSIDERED BUT WHOSE MOLE FRACTIONS
    WERE LESS THAN 5.000000E-06 FOR ALL ASSIGNED CONDITIONS

 *C              *CH             CH2             CH3             CH2OH          
 CH3O            CH4             CH3OH           CH3OOH          COOH           
 *C2             C2H             C2H2,acetylene  C2H2,vinylidene CH2CO,ketene   
 O(CH)2O         HO(CO)2OH       C2H3,vinyl      CH3CO,acetyl    C2H4           
 C2H4O,ethylen-o CH3CHO,ethanal  CH3COOH         OHCH2COOH       C2H5           
 C2H6            C2H5OH          CH3OCH3         CH3O2CH3        C2O            
 *C3             C3H3,1-propynl  C3H3,2-propynl  C3H4,allene     C3H4,propyne   
 C3H4,cyclo-     C3H5,allyl      C3H6,propylene  C3H6,cyclo-     C3H6O,propylox 
 C3H6O,acetone   C3H6O,propanal  C3H7,n-propyl   C3H7,i-propyl   C3H8           
 C3H8O,1propanol C3H8O,2propanol C3O2            *C4             C4H2,butadiyne 
 C4H4,1,3-cyclo- C4H6,butadiene  C4H6,1butyne    C4H6,2butyne    C4H6,cyclo-    
 C4H8,1-butene   C4H8,cis2-buten C4H8,tr2-butene C4H8,isobutene  C4H8,cyclo-    
 (CH3COOH)2      C4H9,n-butyl    C4H9,i-butyl    C4H9,s-butyl    C4H9,t-butyl   
 C4H10,n-butane  C4H10,isobutane *C5             C5H6,1,3cyclo-  C5H8,cyclo-    
 C5H10,1-pentene C5H10,cyclo-    C5H11,pentyl    C5H11,t-pentyl  C5H12,n-pentane
 C5H12,i-pentane CH3C(CH3)2CH3   C6H2            C6H5,phenyl     C6H5O,phenoxy  
 C6H6            C6H5OH,phenol   C6H10,cyclo-    C6H12,1-hexene  C6H12,cyclo-   
 C6H13,n-hexyl   C6H14,n-hexane  C7H7,benzyl     C7H8            C7H8O,cresol-mx
 C7H14,1-heptene C7H15,n-heptyl  C7H16,n-heptane C7H16,2-methylh C8H8,styrene   
 C8H10,ethylbenz C8H16,1-octene  C8H17,n-octyl   C8H18,n-octane  C8H18,isooctane
 C9H19,n-nonyl   C10H8,naphthale C10H21,n-decyl  C12H9,o-bipheny C12H10,biphenyl
 HCCO            HO2             HCHO,formaldehy HCOOH           H2O2           
 (HCOOH)2        O3              C(gr)           H2O(cr)         H2O(L)         

 NOTE. WEIGHT FRACTION OF FUEL IN TOTAL FUELS AND OF OXIDANT IN TOTAL OXIDANTS






 WARNING!!  ASSIGNED pip =   0.00000 IS NOT PERMITTED
 TO BE LESS THAN  Pinj/Pc =  1.00255. POINT OMITTED (ROCKET)





              THEORETICAL ROCKET PERFORMANCE ASSUMING EQUILIBRIUM

            COMPOSITION DURING EXPANSION FROM FINITE AREA COMBUSTOR

 Pin =   155.0 PSIA
 Ac/At = 12.7134      Pinj/Pinf =  1.001273
 CASE =                

             REACTANT                    WT FRACTION      ENERGY      TEMP
                                          (SEE NOTE)     KJ/KG-MOL      K  
 OXIDANT     O2                           0.9806603      2644.389    387.300
 OXIDANT     H2O                          0.0116038   -238808.628    387.300
 OXIDANT     CO2                          0.0077359   -390028.202    387.300
 FUEL        PMMA                         1.0000000   -442140.000    293.150

 O/F=    1.12966  %FUEL= 46.955839  R,EQ.RATIO= 1.560315  PHI,EQ.RATIO= 1.731074

                 INJECTOR  COMB END  THROAT
 Pinj/P            1.0000   1.0026   1.7555
 P, BAR            10.690   10.663   6.0895
 T, K             3029.98  3029.42  2822.41
 RHO, KG/CU M    9.7527-1 9.7298-1 6.0112-1
 H, KJ/KG        -2148.67 -2150.07 -2740.68
 U, KJ/KG        -3244.78 -3245.96 -3753.69
 G, KJ/KG        -37181.2 -37177.6 -35374.6
 S, KJ/(KG)(K)    11.5620  11.5624  11.5624

 M, (1/n)          22.984   22.984   23.166
 (dLV/dLP)t      -1.01092 -1.01092 -1.00647
 (dLV/dLT)p        1.2223   1.2221   1.1399
 Cp, KJ/(KG)(K)    3.6573   3.6567   3.0907
 GAMMAs            1.1585   1.1585   1.1688
 SON VEL,M/SEC     1126.9   1126.8   1088.1
 MACH NUMBER        0.000    0.047    1.000

 PERFORMANCE PARAMETERS

 Ae/At                      12.714   1.0000
 CSTAR, M/SEC               1632.2   1632.2
 CF                         0.0324   0.6666
 Ivac, M/SEC               20779.3   2019.1
 Isp, M/SEC                   52.9   1088.1


 MOLE FRACTIONS

 *CO              0.41710  0.41709  0.41517
 *CO2             0.12403  0.12404  0.13023
 *H               0.01918  0.01917  0.01319
 HCO              0.00001  0.00001  0.00000
 *H2              0.13098  0.13099  0.13479
 H2O              0.29064  0.29065  0.29660
 *O               0.00129  0.00128  0.00051
 *OH              0.01565  0.01564  0.00906
 *O2              0.00113  0.00113  0.00045

  * THERMODYNAMIC PROPERTIES FITTED TO 20000.K

    PRODUCTS WHICH WERE CONSIDERED BUT WHOSE MOLE FRACTIONS
    WERE LESS THAN 5.000000E-06 FOR ALL ASSIGNED CONDITIONS

 *C              *CH             CH2             CH3             CH2OH          
 CH3O            CH4             CH3OH           CH3OOH          COOH           
 *C2             C2H             C2H2,acetylene  C2H2,vinylidene CH2CO,ketene   
 O(CH)2O         HO(CO)2OH       C2H3,vinyl      CH3CO,acetyl    C2H4           
 C2H4O,ethylen-o CH3CHO,ethanal  CH3COOH         OHCH2COOH       C2H5           
 C2H6            C2H5OH          CH3OCH3         CH3O2CH3        C2O            
 *C3             C3H3,1-propynl  C3H3,2-propynl  C3H4,allene     C3H4,propyne   
 C3H4,cyclo-     C3H5,allyl      C3H6,propylene  C3H6,cyclo-     C3H6O,propylox 
 C3H6O,acetone   C3H6O,propanal  C3H7,n-propyl   C3H7,i-propyl   C3H8           
 C3H8O,1propanol C3H8O,2propanol C3O2            *C4             C4H2,butadiyne 
 C4H4,1,3-cyclo- C4H6,butadiene  C4H6,1butyne    C4H6,2butyne    C4H6,cyclo-    
 C4H8,1-butene   C4H8,cis2-buten C4H8,tr2-butene C4H8,isobutene  C4H8,cyclo-    
 (CH3COOH)2      C4H9,n-butyl    C4H9,i-butyl    C4H9,s-butyl    C4H9,t-butyl   
 C4H10,n-butane  C4H10,isobutane *C5             C5H6,1,3cyclo-  C5H8,cyclo-    
 C5H10,1-pentene C5H10,cyclo-    C5H11,pentyl    C5H11,t-pentyl  C5H12,n-pentane
 C5H12,i-pentane CH3C(CH3)2CH3   C6H2            C6H5,phenyl     C6H5O,phenoxy  
 C6H6            C6H5OH,phenol   C6H10,cyclo-    C6H12,1-hexene  C6H12,cyclo-   
 C6H13,n-hexyl   C6H14,n-hexane  C7H7,benzyl     C7H8            C7H8O,cresol-mx
 C7H14,1-heptene C7H15,n-heptyl  C7H16,n-heptane C7H16,2-methylh C8H8,styrene   
 C8H10,ethylbenz C8H16,1-octene  C8H17,n-octyl   C8H18,n-octane  C8H18,isooctane
 C9H19,n-nonyl   C10H8,naphthale C10H21,n-decyl  C12H9,o-bipheny C12H10,biphenyl
 HCCO            HO2             HCHO,formaldehy HCOOH           H2O2           
 (HCOOH)2        O3              C(gr)           H2O(cr)         H2O(L)         

 NOTE. WEIGHT FRACTION OF FUEL IN TOTAL FUELS AND OF OXIDANT IN TOTAL OXIDANTS






 WARNING!!  ASSIGNED pip =   0.00000 IS NOT PERMITTED
 TO BE LESS THAN  Pinj/Pc =  1.00255. POINT OMITTED (ROCKET)





              THEORETICAL ROCKET PERFORMANCE ASSUMING EQUILIBRIUM

            COMPOSITION DURING EXPANSION FROM FINITE AREA COMBUSTOR

 Pin =   155.0 PSIA
 Ac/At = 12.7134      Pinj/Pinf =  1.001273
 CASE =                

             REACTANT                    WT FRACTION      ENERGY      TEMP
                                          (SEE NOTE)     KJ/KG-MOL      K  
 OXIDANT     O2                           0.9806603      2644.389    387.300
 OXIDANT     H2O                          0.0116038   -238808.628    387.300
 OXIDANT     CO2                          0.0077359   -390028.202    387.300
 FUEL        PMMA                         1.0000000   -442140.000    293.150

 O/F=    1.12966  %FUEL= 46.955839  R,EQ.RATIO= 1.560315  PHI,EQ.RATIO= 1.731074

                 INJECTOR  COMB END  THROAT
 Pinj/P            1.0000   1.0026   1.7555
 P, BAR            10.690   10.663   6.0895
 T, K             3029.98  3029.42  2822.41
 RHO, KG/CU M    9.7527-1 9.7298-1 6.0112-1
 H, KJ/KG        -2148.67 -2150.07 -2740.68
 U, KJ/KG        -3244.78 -3245.96 -3753.69
 G, KJ/KG        -37181.2 -37177.6 -35374.6
 S, KJ/(KG)(K)    11.5620  11.5624  11.5624

 M, (1/n)          22.984   22.984   23.166
 (dLV/dLP)t      -1.01092 -1.01092 -1.00647
 (dLV/dLT)p        1.2223   1.2221   1.1399
 Cp, KJ/(KG)(K)    3.6573   3.6567   3.0907
 GAMMAs            1.1585   1.1585   1.1688
 SON VEL,M/SEC     1126.9   1126.8   1088.1
 MACH NUMBER        0.000    0.047    1.000

 PERFORMANCE PARAMETERS

 Ae/At                      12.714   1.0000
 CSTAR, M/SEC               1632.2   1632.2
 CF                         0.0324   0.6666
 Ivac, M/SEC               20779.3   2019.1
 Isp, M/SEC                   52.9   1088.1


 MOLE FRACTIONS

 *CO              0.41710  0.41709  0.41517
 *CO2             0.12403  0.12404  0.13023
 *H               0.01918  0.01917  0.01319
 HCO              0.00001  0.00001  0.00000
 *H2              0.13098  0.13099  0.13479
 H2O              0.29064  0.29065  0.29660
 *O               0.00129  0.00128  0.00051
 *OH              0.01565  0.01564  0.00906
 *O2              0.00113  0.00113  0.00045

  * THERMODYNAMIC PROPERTIES FITTED TO 20000.K

    PRODUCTS WHICH WERE CONSIDERED BUT WHOSE MOLE FRACTIONS
    WERE LESS THAN 5.000000E-06 FOR ALL ASSIGNED CONDITIONS

 *C              *CH             CH2             CH3             CH2OH          
 CH3O            CH4             CH3OH           CH3OOH          COOH           
 *C2             C2H             C2H2,acetylene  C2H2,vinylidene CH2CO,ketene   
 O(CH)2O         HO(CO)2OH       C2H3,vinyl      CH3CO,acetyl    C2H4           
 C2H4O,ethylen-o CH3CHO,ethanal  CH3COOH         OHCH2COOH       C2H5           
 C2H6            C2H5OH          CH3OCH3         CH3O2CH3        C2O            
 *C3             C3H3,1-propynl  C3H3,2-propynl  C3H4,allene     C3H4,propyne   
 C3H4,cyclo-     C3H5,allyl      C3H6,propylene  C3H6,cyclo-     C3H6O,propylox 
 C3H6O,acetone   C3H6O,propanal  C3H7,n-propyl   C3H7,i-propyl   C3H8           
 C3H8O,1propanol C3H8O,2propanol C3O2            *C4             C4H2,butadiyne 
 C4H4,1,3-cyclo- C4H6,butadiene  C4H6,1butyne    C4H6,2butyne    C4H6,cyclo-    
 C4H8,1-butene   C4H8,cis2-buten C4H8,tr2-butene C4H8,isobutene  C4H8,cyclo-    
 (CH3COOH)2      C4H9,n-butyl    C4H9,i-butyl    C4H9,s-butyl    C4H9,t-butyl   
 C4H10,n-butane  C4H10,isobutane *C5             C5H6,1,3cyclo-  C5H8,cyclo-    
 C5H10,1-pentene C5H10,cyclo-    C5H11,pentyl    C5H11,t-pentyl  C5H12,n-pentane
 C5H12,i-pentane CH3C(CH3)2CH3   C6H2            C6H5,phenyl     C6H5O,phenoxy  
 C6H6            C6H5OH,phenol   C6H10,cyclo-    C6H12,1-hexene  C6H12,cyclo-   
 C6H13,n-hexyl   C6H14,n-hexane  C7H7,benzyl     C7H8            C7H8O,cresol-mx
 C7H14,1-heptene C7H15,n-heptyl  C7H16,n-heptane C7H16,2-methylh C8H8,styrene   
 C8H10,ethylbenz C8H16,1-octene  C8H17,n-octyl   C8H18,n-octane  C8H18,isooctane
 C9H19,n-nonyl   C10H8,naphthale C10H21,n-decyl  C12H9,o-bipheny C12H10,biphenyl
 HCCO            HO2             HCHO,formaldehy HCOOH           H2O2           
 (HCOOH)2        O3              C(gr)           H2O(cr)         H2O(L)         

 NOTE. WEIGHT FRACTION OF FUEL IN TOTAL FUELS AND OF OXIDANT IN TOTAL OXIDANTS






 WARNING!!  ASSIGNED pip =   0.00000 IS NOT PERMITTED
 TO BE LESS THAN  Pinj/Pc =  1.00255. POINT OMITTED (ROCKET)





              THEORETICAL ROCKET PERFORMANCE ASSUMING EQUILIBRIUM

            COMPOSITION DURING EXPANSION FROM FINITE AREA COMBUSTOR

 Pin =   155.0 PSIA
 Ac/At = 12.7134      Pinj/Pinf =  1.001273
 CASE =                

             REACTANT                    WT FRACTION      ENERGY      TEMP
                                          (SEE NOTE)     KJ/KG-MOL      K  
 OXIDANT     O2                           0.9806603      2644.389    387.300
 OXIDANT     H2O                          0.0116038   -238808.628    387.300
 OXIDANT     CO2                          0.0077359   -390028.202    387.300
 FUEL        PMMA                         1.0000000   -442140.000    293.150

 O/F=    1.12966  %FUEL= 46.955839  R,EQ.RATIO= 1.560315  PHI,EQ.RATIO= 1.731074

                 INJECTOR  COMB END  THROAT
 Pinj/P            1.0000   1.0026   1.7555
 P, BAR            10.690   10.663   6.0895
 T, K             3029.98  3029.42  2822.41
 RHO, KG/CU M    9.7527-1 9.7298-1 6.0112-1
 H, KJ/KG        -2148.67 -2150.07 -2740.68
 U, KJ/KG        -3244.78 -3245.96 -3753.69
 G, KJ/KG        -37181.2 -37177.6 -35374.6
 S, KJ/(KG)(K)    11.5620  11.5624  11.5624

 M, (1/n)          22.984   22.984   23.166
 (dLV/dLP)t      -1.01092 -1.01092 -1.00647
 (dLV/dLT)p        1.2223   1.2221   1.1399
 Cp, KJ/(KG)(K)    3.6573   3.6567   3.0907
 GAMMAs            1.1585   1.1585   1.1688
 SON VEL,M/SEC     1126.9   1126.8   1088.1
 MACH NUMBER        0.000    0.047    1.000

 PERFORMANCE PARAMETERS

 Ae/At                      12.714   1.0000
 CSTAR, M/SEC               1632.2   1632.2
 CF                         0.0324   0.6666
 Ivac, M/SEC               20779.3   2019.1
 Isp, M/SEC                   52.9   1088.1


 MOLE FRACTIONS

 *CO              0.41710  0.41709  0.41517
 *CO2             0.12403  0.12404  0.13023
 *H               0.01918  0.01917  0.01319
 HCO              0.00001  0.00001  0.00000
 *H2              0.13098  0.13099  0.13479
 H2O              0.29064  0.29065  0.29660
 *O               0.00129  0.00128  0.00051
 *OH              0.01565  0.01564  0.00906
 *O2              0.00113  0.00113  0.00045

  * THERMODYNAMIC PROPERTIES FITTED TO 20000.K

    PRODUCTS WHICH WERE CONSIDERED BUT WHOSE MOLE FRACTIONS
    WERE LESS THAN 5.000000E-06 FOR ALL ASSIGNED CONDITIONS

 *C              *CH             CH2             CH3             CH2OH          
 CH3O            CH4             CH3OH           CH3OOH          COOH           
 *C2             C2H             C2H2,acetylene  C2H2,vinylidene CH2CO,ketene   
 O(CH)2O         HO(CO)2OH       C2H3,vinyl      CH3CO,acetyl    C2H4           
 C2H4O,ethylen-o CH3CHO,ethanal  CH3COOH         OHCH2COOH       C2H5           
 C2H6            C2H5OH          CH3OCH3         CH3O2CH3        C2O            
 *C3             C3H3,1-propynl  C3H3,2-propynl  C3H4,allene     C3H4,propyne   
 C3H4,cyclo-     C3H5,allyl      C3H6,propylene  C3H6,cyclo-     C3H6O,propylox 
 C3H6O,acetone   C3H6O,propanal  C3H7,n-propyl   C3H7,i-propyl   C3H8           
 C3H8O,1propanol C3H8O,2propanol C3O2            *C4             C4H2,butadiyne 
 C4H4,1,3-cyclo- C4H6,butadiene  C4H6,1butyne    C4H6,2butyne    C4H6,cyclo-    
 C4H8,1-butene   C4H8,cis2-buten C4H8,tr2-butene C4H8,isobutene  C4H8,cyclo-    
 (CH3COOH)2      C4H9,n-butyl    C4H9,i-butyl    C4H9,s-butyl    C4H9,t-butyl   
 C4H10,n-butane  C4H10,isobutane *C5             C5H6,1,3cyclo-  C5H8,cyclo-    
 C5H10,1-pentene C5H10,cyclo-    C5H11,pentyl    C5H11,t-pentyl  C5H12,n-pentane
 C5H12,i-pentane CH3C(CH3)2CH3   C6H2            C6H5,phenyl     C6H5O,phenoxy  
 C6H6            C6H5OH,phenol   C6H10,cyclo-    C6H12,1-hexene  C6H12,cyclo-   
 C6H13,n-hexyl   C6H14,n-hexane  C7H7,benzyl     C7H8            C7H8O,cresol-mx
 C7H14,1-heptene C7H15,n-heptyl  C7H16,n-heptane C7H16,2-methylh C8H8,styrene   
 C8H10,ethylbenz C8H16,1-octene  C8H17,n-octyl   C8H18,n-octane  C8H18,isooctane
 C9H19,n-nonyl   C10H8,naphthale C10H21,n-decyl  C12H9,o-bipheny C12H10,biphenyl
 HCCO            HO2             HCHO,formaldehy HCOOH           H2O2           
 (HCOOH)2        O3              C(gr)           H2O(cr)         H2O(L)         

 NOTE. WEIGHT FRACTION OF FUEL IN TOTAL FUELS AND OF OXIDANT IN TOTAL OXIDANTS






 WARNING!!  ASSIGNED pip =   0.00000 IS NOT PERMITTED
 TO BE LESS THAN  Pinj/Pc =  1.00255. POINT OMITTED (ROCKET)





              THEORETICAL ROCKET PERFORMANCE ASSUMING EQUILIBRIUM

            COMPOSITION DURING EXPANSION FROM FINITE AREA COMBUSTOR

 Pin =   155.0 PSIA
 Ac/At = 12.7134      Pinj/Pinf =  1.001273
 CASE =                

             REACTANT                    WT FRACTION      ENERGY      TEMP
                                          (SEE NOTE)     KJ/KG-MOL      K  
 OXIDANT     O2                           0.9806603      2644.389    387.300
 OXIDANT     H2O                          0.0116038   -238808.628    387.300
 OXIDANT     CO2                          0.0077359   -390028.202    387.300
 FUEL        PMMA                         1.0000000   -442140.000    293.150

 O/F=    1.12966  %FUEL= 46.955839  R,EQ.RATIO= 1.560315  PHI,EQ.RATIO= 1.731074

                 INJECTOR  COMB END  THROAT
 Pinj/P            1.0000   1.0026   1.7555
 P, BAR            10.690   10.663   6.0895
 T, K             3029.98  3029.42  2822.41
 RHO, KG/CU M    9.7527-1 9.7298-1 6.0112-1
 H, KJ/KG        -2148.67 -2150.07 -2740.68
 U, KJ/KG        -3244.78 -3245.96 -3753.69
 G, KJ/KG        -37181.2 -37177.6 -35374.6
 S, KJ/(KG)(K)    11.5620  11.5624  11.5624

 M, (1/n)          22.984   22.984   23.166
 (dLV/dLP)t      -1.01092 -1.01092 -1.00647
 (dLV/dLT)p        1.2223   1.2221   1.1399
 Cp, KJ/(KG)(K)    3.6573   3.6567   3.0907
 GAMMAs            1.1585   1.1585   1.1688
 SON VEL,M/SEC     1126.9   1126.8   1088.1
 MACH NUMBER        0.000    0.047    1.000

 PERFORMANCE PARAMETERS

 Ae/At                      12.714   1.0000
 CSTAR, M/SEC               1632.2   1632.2
 CF                         0.0324   0.6666
 Ivac, M/SEC               20779.3   2019.1
 Isp, M/SEC                   52.9   1088.1


 MOLE FRACTIONS

 *CO              0.41710  0.41709  0.41517
 *CO2             0.12403  0.12404  0.13023
 *H               0.01918  0.01917  0.01319
 HCO              0.00001  0.00001  0.00000
 *H2              0.13098  0.13099  0.13479
 H2O              0.29064  0.29065  0.29660
 *O               0.00129  0.00128  0.00051
 *OH              0.01565  0.01564  0.00906
 *O2              0.00113  0.00113  0.00045

  * THERMODYNAMIC PROPERTIES FITTED TO 20000.K

    PRODUCTS WHICH WERE CONSIDERED BUT WHOSE MOLE FRACTIONS
    WERE LESS THAN 5.000000E-06 FOR ALL ASSIGNED CONDITIONS

 *C              *CH             CH2             CH3             CH2OH          
 CH3O            CH4             CH3OH           CH3OOH          COOH           
 *C2             C2H             C2H2,acetylene  C2H2,vinylidene CH2CO,ketene   
 O(CH)2O         HO(CO)2OH       C2H3,vinyl      CH3CO,acetyl    C2H4           
 C2H4O,ethylen-o CH3CHO,ethanal  CH3COOH         OHCH2COOH       C2H5           
 C2H6            C2H5OH          CH3OCH3         CH3O2CH3        C2O            
 *C3             C3H3,1-propynl  C3H3,2-propynl  C3H4,allene     C3H4,propyne   
 C3H4,cyclo-     C3H5,allyl      C3H6,propylene  C3H6,cyclo-     C3H6O,propylox 
 C3H6O,acetone   C3H6O,propanal  C3H7,n-propyl   C3H7,i-propyl   C3H8           
 C3H8O,1propanol C3H8O,2propanol C3O2            *C4             C4H2,butadiyne 
 C4H4,1,3-cyclo- C4H6,butadiene  C4H6,1butyne    C4H6,2butyne    C4H6,cyclo-    
 C4H8,1-butene   C4H8,cis2-buten C4H8,tr2-butene C4H8,isobutene  C4H8,cyclo-    
 (CH3COOH)2      C4H9,n-butyl    C4H9,i-butyl    C4H9,s-butyl    C4H9,t-butyl   
 C4H10,n-butane  C4H10,isobutane *C5             C5H6,1,3cyclo-  C5H8,cyclo-    
 C5H10,1-pentene C5H10,cyclo-    C5H11,pentyl    C5H11,t-pentyl  C5H12,n-pentane
 C5H12,i-pentane CH3C(CH3)2CH3   C6H2            C6H5,phenyl     C6H5O,phenoxy  
 C6H6            C6H5OH,phenol   C6H10,cyclo-    C6H12,1-hexene  C6H12,cyclo-   
 C6H13,n-hexyl   C6H14,n-hexane  C7H7,benzyl     C7H8            C7H8O,cresol-mx
 C7H14,1-heptene C7H15,n-heptyl  C7H16,n-heptane C7H16,2-methylh C8H8,styrene   
 C8H10,ethylbenz C8H16,1-octene  C8H17,n-octyl   C8H18,n-octane  C8H18,isooctane
 C9H19,n-nonyl   C10H8,naphthale C10H21,n-decyl  C12H9,o-bipheny C12H10,biphenyl
 HCCO            HO2             HCHO,formaldehy HCOOH           H2O2           
 (HCOOH)2        O3              C(gr)           H2O(cr)         H2O(L)         

 NOTE. WEIGHT FRACTION OF FUEL IN TOTAL FUELS AND OF OXIDANT IN TOTAL OXIDANTS






 WARNING!!  ASSIGNED pip =   0.00000 IS NOT PERMITTED
 TO BE LESS THAN  Pinj/Pc =  1.00255. POINT OMITTED (ROCKET)





              THEORETICAL ROCKET PERFORMANCE ASSUMING EQUILIBRIUM

            COMPOSITION DURING EXPANSION FROM FINITE AREA COMBUSTOR

 Pin =   155.0 PSIA
 Ac/At = 12.7134      Pinj/Pinf =  1.001273
 CASE =                

             REACTANT                    WT FRACTION      ENERGY      TEMP
                                          (SEE NOTE)     KJ/KG-MOL      K  
 OXIDANT     O2                           0.9806603      2644.389    387.300
 OXIDANT     H2O                          0.0116038   -238808.628    387.300
 OXIDANT     CO2                          0.0077359   -390028.202    387.300
 FUEL        PMMA                         1.0000000   -442140.000    293.150

 O/F=    1.12966  %FUEL= 46.955839  R,EQ.RATIO= 1.560315  PHI,EQ.RATIO= 1.731074

                 INJECTOR  COMB END  THROAT
 Pinj/P            1.0000   1.0026   1.7555
 P, BAR            10.690   10.663   6.0895
 T, K             3029.98  3029.42  2822.41
 RHO, KG/CU M    9.7527-1 9.7298-1 6.0112-1
 H, KJ/KG        -2148.67 -2150.07 -2740.68
 U, KJ/KG        -3244.78 -3245.96 -3753.69
 G, KJ/KG        -37181.2 -37177.6 -35374.6
 S, KJ/(KG)(K)    11.5620  11.5624  11.5624

 M, (1/n)          22.984   22.984   23.166
 (dLV/dLP)t      -1.01092 -1.01092 -1.00647
 (dLV/dLT)p        1.2223   1.2221   1.1399
 Cp, KJ/(KG)(K)    3.6573   3.6567   3.0907
 GAMMAs            1.1585   1.1585   1.1688
 SON VEL,M/SEC     1126.9   1126.8   1088.1
 MACH NUMBER        0.000    0.047    1.000

 PERFORMANCE PARAMETERS

 Ae/At                      12.714   1.0000
 CSTAR, M/SEC               1632.2   1632.2
 CF                         0.0324   0.6666
 Ivac, M/SEC               20779.3   2019.1
 Isp, M/SEC                   52.9   1088.1


 MOLE FRACTIONS

 *CO              0.41710  0.41709  0.41517
 *CO2             0.12403  0.12404  0.13023
 *H               0.01918  0.01917  0.01319
 HCO              0.00001  0.00001  0.00000
 *H2              0.13098  0.13099  0.13479
 H2O              0.29064  0.29065  0.29660
 *O               0.00129  0.00128  0.00051
 *OH              0.01565  0.01564  0.00906
 *O2              0.00113  0.00113  0.00045

  * THERMODYNAMIC PROPERTIES FITTED TO 20000.K

    PRODUCTS WHICH WERE CONSIDERED BUT WHOSE MOLE FRACTIONS
    WERE LESS THAN 5.000000E-06 FOR ALL ASSIGNED CONDITIONS

 *C              *CH             CH2             CH3             CH2OH          
 CH3O            CH4             CH3OH           CH3OOH          COOH           
 *C2             C2H             C2H2,acetylene  C2H2,vinylidene CH2CO,ketene   
 O(CH)2O         HO(CO)2OH       C2H3,vinyl      CH3CO,acetyl    C2H4           
 C2H4O,ethylen-o CH3CHO,ethanal  CH3COOH         OHCH2COOH       C2H5           
 C2H6            C2H5OH          CH3OCH3         CH3O2CH3        C2O            
 *C3             C3H3,1-propynl  C3H3,2-propynl  C3H4,allene     C3H4,propyne   
 C3H4,cyclo-     C3H5,allyl      C3H6,propylene  C3H6,cyclo-     C3H6O,propylox 
 C3H6O,acetone   C3H6O,propanal  C3H7,n-propyl   C3H7,i-propyl   C3H8           
 C3H8O,1propanol C3H8O,2propanol C3O2            *C4             C4H2,butadiyne 
 C4H4,1,3-cyclo- C4H6,butadiene  C4H6,1butyne    C4H6,2butyne    C4H6,cyclo-    
 C4H8,1-butene   C4H8,cis2-buten C4H8,tr2-butene C4H8,isobutene  C4H8,cyclo-    
 (CH3COOH)2      C4H9,n-butyl    C4H9,i-butyl    C4H9,s-butyl    C4H9,t-butyl   
 C4H10,n-butane  C4H10,isobutane *C5             C5H6,1,3cyclo-  C5H8,cyclo-    
 C5H10,1-pentene C5H10,cyclo-    C5H11,pentyl    C5H11,t-pentyl  C5H12,n-pentane
 C5H12,i-pentane CH3C(CH3)2CH3   C6H2            C6H5,phenyl     C6H5O,phenoxy  
 C6H6            C6H5OH,phenol   C6H10,cyclo-    C6H12,1-hexene  C6H12,cyclo-   
 C6H13,n-hexyl   C6H14,n-hexane  C7H7,benzyl     C7H8            C7H8O,cresol-mx
 C7H14,1-heptene C7H15,n-heptyl  C7H16,n-heptane C7H16,2-methylh C8H8,styrene   
 C8H10,ethylbenz C8H16,1-octene  C8H17,n-octyl   C8H18,n-octane  C8H18,isooctane
 C9H19,n-nonyl   C10H8,naphthale C10H21,n-decyl  C12H9,o-bipheny C12H10,biphenyl
 HCCO            HO2             HCHO,formaldehy HCOOH           H2O2           
 (HCOOH)2        O3              C(gr)           H2O(cr)         H2O(L)         

 NOTE. WEIGHT FRACTION OF FUEL IN TOTAL FUELS AND OF OXIDANT IN TOTAL OXIDANTS






 WARNING!!  ASSIGNED pip =   0.00000 IS NOT PERMITTED
 TO BE LESS THAN  Pinj/Pc =  1.00255. POINT OMITTED (ROCKET)





              THEORETICAL ROCKET PERFORMANCE ASSUMING EQUILIBRIUM

            COMPOSITION DURING EXPANSION FROM FINITE AREA COMBUSTOR

 Pin =   155.0 PSIA
 Ac/At = 12.7134      Pinj/Pinf =  1.001273
 CASE =                

             REACTANT                    WT FRACTION      ENERGY      TEMP
                                          (SEE NOTE)     KJ/KG-MOL      K  
 OXIDANT     O2                           0.9806603      2644.389    387.300
 OXIDANT     H2O                          0.0116038   -238808.628    387.300
 OXIDANT     CO2                          0.0077359   -390028.202    387.300
 FUEL        PMMA                         1.0000000   -442140.000    293.150

 O/F=    1.12966  %FUEL= 46.955839  R,EQ.RATIO= 1.560315  PHI,EQ.RATIO= 1.731074

                 INJECTOR  COMB END  THROAT
 Pinj/P            1.0000   1.0026   1.7555
 P, BAR            10.690   10.663   6.0895
 T, K             3029.98  3029.42  2822.41
 RHO, KG/CU M    9.7527-1 9.7298-1 6.0112-1
 H, KJ/KG        -2148.67 -2150.07 -2740.68
 U, KJ/KG        -3244.78 -3245.96 -3753.69
 G, KJ/KG        -37181.2 -37177.6 -35374.6
 S, KJ/(KG)(K)    11.5620  11.5624  11.5624

 M, (1/n)          22.984   22.984   23.166
 (dLV/dLP)t      -1.01092 -1.01092 -1.00647
 (dLV/dLT)p        1.2223   1.2221   1.1399
 Cp, KJ/(KG)(K)    3.6573   3.6567   3.0907
 GAMMAs            1.1585   1.1585   1.1688
 SON VEL,M/SEC     1126.9   1126.8   1088.1
 MACH NUMBER        0.000    0.047    1.000

 PERFORMANCE PARAMETERS

 Ae/At                      12.714   1.0000
 CSTAR, M/SEC               1632.2   1632.2
 CF                         0.0324   0.6666
 Ivac, M/SEC               20779.3   2019.1
 Isp, M/SEC                   52.9   1088.1


 MOLE FRACTIONS

 *CO              0.41710  0.41709  0.41517
 *CO2             0.12403  0.12404  0.13023
 *H               0.01918  0.01917  0.01319
 HCO              0.00001  0.00001  0.00000
 *H2              0.13098  0.13099  0.13479
 H2O              0.29064  0.29065  0.29660
 *O               0.00129  0.00128  0.00051
 *OH              0.01565  0.01564  0.00906
 *O2              0.00113  0.00113  0.00045

  * THERMODYNAMIC PROPERTIES FITTED TO 20000.K

    PRODUCTS WHICH WERE CONSIDERED BUT WHOSE MOLE FRACTIONS
    WERE LESS THAN 5.000000E-06 FOR ALL ASSIGNED CONDITIONS

 *C              *CH             CH2             CH3             CH2OH          
 CH3O            CH4             CH3OH           CH3OOH          COOH           
 *C2             C2H             C2H2,acetylene  C2H2,vinylidene CH2CO,ketene   
 O(CH)2O         HO(CO)2OH       C2H3,vinyl      CH3CO,acetyl    C2H4           
 C2H4O,ethylen-o CH3CHO,ethanal  CH3COOH         OHCH2COOH       C2H5           
 C2H6            C2H5OH          CH3OCH3         CH3O2CH3        C2O            
 *C3             C3H3,1-propynl  C3H3,2-propynl  C3H4,allene     C3H4,propyne   
 C3H4,cyclo-     C3H5,allyl      C3H6,propylene  C3H6,cyclo-     C3H6O,propylox 
 C3H6O,acetone   C3H6O,propanal  C3H7,n-propyl   C3H7,i-propyl   C3H8           
 C3H8O,1propanol C3H8O,2propanol C3O2            *C4             C4H2,butadiyne 
 C4H4,1,3-cyclo- C4H6,butadiene  C4H6,1butyne    C4H6,2butyne    C4H6,cyclo-    
 C4H8,1-butene   C4H8,cis2-buten C4H8,tr2-butene C4H8,isobutene  C4H8,cyclo-    
 (CH3COOH)2      C4H9,n-butyl    C4H9,i-butyl    C4H9,s-butyl    C4H9,t-butyl   
 C4H10,n-butane  C4H10,isobutane *C5             C5H6,1,3cyclo-  C5H8,cyclo-    
 C5H10,1-pentene C5H10,cyclo-    C5H11,pentyl    C5H11,t-pentyl  C5H12,n-pentane
 C5H12,i-pentane CH3C(CH3)2CH3   C6H2            C6H5,phenyl     C6H5O,phenoxy  
 C6H6            C6H5OH,phenol   C6H10,cyclo-    C6H12,1-hexene  C6H12,cyclo-   
 C6H13,n-hexyl   C6H14,n-hexane  C7H7,benzyl     C7H8            C7H8O,cresol-mx
 C7H14,1-heptene C7H15,n-heptyl  C7H16,n-heptane C7H16,2-methylh C8H8,styrene   
 C8H10,ethylbenz C8H16,1-octene  C8H17,n-octyl   C8H18,n-octane  C8H18,isooctane
 C9H19,n-nonyl   C10H8,naphthale C10H21,n-decyl  C12H9,o-bipheny C12H10,biphenyl
 HCCO            HO2             HCHO,formaldehy HCOOH           H2O2           
 (HCOOH)2        O3              C(gr)           H2O(cr)         H2O(L)         

 NOTE. WEIGHT FRACTION OF FUEL IN TOTAL FUELS AND OF OXIDANT IN TOTAL OXIDANTS





   4    5    2070.604     -21.470     -10.806     -13.865





              THEORETICAL ROCKET PERFORMANCE ASSUMING EQUILIBRIUM

            COMPOSITION DURING EXPANSION FROM FINITE AREA COMBUSTOR

 Pin =   155.0 PSIA
 Ac/At = 12.7134      Pinj/Pinf =  1.001273
 CASE =                

             REACTANT                    WT FRACTION      ENERGY      TEMP
                                          (SEE NOTE)     KJ/KG-MOL      K  
 OXIDANT     O2                           0.9806603      2644.389    387.300
 OXIDANT     H2O                          0.0116038   -238808.628    387.300
 OXIDANT     CO2                          0.0077359   -390028.202    387.300
 FUEL        PMMA                         1.0000000   -442140.000    293.150

 O/F=    1.12966  %FUEL= 46.955839  R,EQ.RATIO= 1.560315  PHI,EQ.RATIO= 1.731074

                 INJECTOR  COMB END  THROAT     EXIT
 Pinj/P            1.0000   1.0026   1.7555   12.713
 P, BAR            10.690   10.663   6.0895  0.84084
 T, K             3029.98  3029.42  2822.41  2070.60
 RHO, KG/CU M    9.7527-1 9.7298-1 6.0112-1 1.1445-1
 H, KJ/KG        -2148.67 -2150.07 -2740.68 -4466.03
 U, KJ/KG        -3244.78 -3245.96 -3753.69 -5200.74
 G, KJ/KG        -37181.2 -37177.6 -35374.6 -28407.2
 S, KJ/(KG)(K)    11.5620  11.5624  11.5624  11.5624

 M, (1/n)          22.984   22.984   23.166   23.432
 (dLV/dLP)t      -1.01092 -1.01092 -1.00647 -1.00035
 (dLV/dLT)p        1.2223   1.2221   1.1399   1.0096
 Cp, KJ/(KG)(K)    3.6573   3.6567   3.0907   2.0299
 GAMMAs            1.1585   1.1585   1.1688   1.2163
 SON VEL,M/SEC     1126.9   1126.8   1088.1    945.3
 MACH NUMBER        0.000    0.047    1.000    2.277

 PERFORMANCE PARAMETERS

 Ae/At                      12.714   1.0000   2.6548
 CSTAR, M/SEC               1632.2   1632.2   1632.2
 CF                         0.0324   0.6666   1.3190
 Ivac, M/SEC               20779.3   2019.1   2494.1
 Isp, M/SEC                   52.9   1088.1   2152.8


 MOLE FRACTIONS

 *CO              0.41710  0.41709  0.41517  0.39939
 *CO2             0.12403  0.12404  0.13023  0.15231
 *H               0.01918  0.01917  0.01319  0.00112
 HCO              0.00001  0.00001  0.00000  0.00000
 *H2              0.13098  0.13099  0.13479  0.15716
 H2O              0.29064  0.29065  0.29660  0.28976
 *O               0.00129  0.00128  0.00051  0.00000
 *OH              0.01565  0.01564  0.00906  0.00026
 *O2              0.00113  0.00113  0.00045  0.00000

  * THERMODYNAMIC PROPERTIES FITTED TO 20000.K

    PRODUCTS WHICH WERE CONSIDERED BUT WHOSE MOLE FRACTIONS
    WERE LESS THAN 5.000000E-06 FOR ALL ASSIGNED CONDITIONS

 *C              *CH             CH2             CH3             CH2OH          
 CH3O            CH4             CH3OH           CH3OOH          COOH           
 *C2             C2H             C2H2,acetylene  C2H2,vinylidene CH2CO,ketene   
 O(CH)2O         HO(CO)2OH       C2H3,vinyl      CH3CO,acetyl    C2H4           
 C2H4O,ethylen-o CH3CHO,ethanal  CH3COOH         OHCH2COOH       C2H5           
 C2H6            C2H5OH          CH3OCH3         CH3O2CH3        C2O            
 *C3             C3H3,1-propynl  C3H3,2-propynl  C3H4,allene     C3H4,propyne   
 C3H4,cyclo-     C3H5,allyl      C3H6,propylene  C3H6,cyclo-     C3H6O,propylox 
 C3H6O,acetone   C3H6O,propanal  C3H7,n-propyl   C3H7,i-propyl   C3H8           
 C3H8O,1propanol C3H8O,2propanol C3O2            *C4             C4H2,butadiyne 
 C4H4,1,3-cyclo- C4H6,butadiene  C4H6,1butyne    C4H6,2butyne    C4H6,cyclo-    
 C4H8,1-butene   C4H8,cis2-buten C4H8,tr2-butene C4H8,isobutene  C4H8,cyclo-    
 (CH3COOH)2      C4H9,n-butyl    C4H9,i-butyl    C4H9,s-butyl    C4H9,t-butyl   
 C4H10,n-butane  C4H10,isobutane *C5             C5H6,1,3cyclo-  C5H8,cyclo-    
 C5H10,1-pentene C5H10,cyclo-    C5H11,pentyl    C5H11,t-pentyl  C5H12,n-pentane
 C5H12,i-pentane CH3C(CH3)2CH3   C6H2            C6H5,phenyl     C6H5O,phenoxy  
 C6H6            C6H5OH,phenol   C6H10,cyclo-    C6H12,1-hexene  C6H12,cyclo-   
 C6H13,n-hexyl   C6H14,n-hexane  C7H7,benzyl     C7H8            C7H8O,cresol-mx
 C7H14,1-heptene C7H15,n-heptyl  C7H16,n-heptane C7H16,2-methylh C8H8,styrene   
 C8H10,ethylbenz C8H16,1-octene  C8H17,n-octyl   C8H18,n-octane  C8H18,isooctane
 C9H19,n-nonyl   C10H8,naphthale C10H21,n-decyl  C12H9,o-bipheny C12H10,biphenyl
 HCCO            HO2             HCHO,formaldehy HCOOH           H2O2           
 (HCOOH)2        O3              C(gr)           H2O(cr)         H2O(L)         

 NOTE. WEIGHT FRACTION OF FUEL IN TOTAL FUELS AND OF OXIDANT IN TOTAL OXIDANTS



