
 *******************************************************************************

         NASA-GLENN CHEMICAL EQUILIBRIUM PROGRAM CEA2, MAY 21, 2004
                   BY  BONNIE MCBRIDE AND SANFORD GORDON
      REFS: NASA RP-1311, PART I, 1994 AND NASA RP-1311, PART II, 1996

 *******************************************************************************



 prob rocket fac p,bar=11.23,ac/at=29.7520661157,
 o/f=50.7072240712, pi/pe=1, eq
 react
 	oxid=O2(L) wt=100
 	fuel=PMMA  wt=100 t,k=293.15
 	h,kj/mol=-442.14  C 5 H 8 O 2
 end

 OPTIONS: TP=F  HP=F  SP=F  TV=F  UV=F  SV=F  DETN=F  SHOCK=F  REFL=F  INCD=F
 RKT=T  FROZ=F  EQL=T  IONS=F  SIUNIT=T  DEBUGF=F  SHKDBG=F  DETDBG=T  TRNSPT=F

 TRACE= 0.00E+00  S/R= 0.000000E+00  H/R= 0.000000E+00  U/R= 0.000000E+00

 Pc,BAR =    11.230000

 Pc/P =     1.0000

 SUBSONIC AREA RATIOS =

 SUPERSONIC AREA RATIOS =

 NFZ=  1  Mdot/Ac= 0.000000E+00  Ac/At= 2.975207E+01

    REACTANT          WT.FRAC   (ENERGY/R),K   TEMP,K  DENSITY
        EXPLODED FORMULA
 O: O2(L)            1.000000  -0.156101E+04    90.17  0.0000
          O  2.00000
 F: PMMA             1.000000  -0.531769E+05   293.15  0.0000
          C  5.00000  H  8.00000  O  2.00000

  SPECIES BEING CONSIDERED IN THIS SYSTEM
 (CONDENSED PHASE MAY HAVE NAME LISTED SEVERAL TIMES)
  LAST thermo.inp UPDATE:    9/09/04

  g 7/97  *C               tpis79  *CH              g 4/02  CH2            
  g 4/02  CH3              g11/00  CH2OH            g 7/00  CH3O           
  g 8/99  CH4              g 7/00  CH3OH            srd 01  CH3OOH         
  tpis79  *CO              g 9/99  *CO2             tpis91  COOH           
  tpis91  *C2              g 6/01  C2H              g 1/91  C2H2,acetylene 
  g 5/01  C2H2,vinylidene  g 4/02  CH2CO,ketene     g 3/02  O(CH)2O        
  srd 01  HO(CO)2OH        g 7/01  C2H3,vinyl       g 6/96  CH3CO,acetyl   
  g 1/00  C2H4             g 8/88  C2H4O,ethylen-o  g 8/88  CH3CHO,ethanal 
  g 6/00  CH3COOH          srd 01  OHCH2COOH        g 7/00  C2H5           
  g 7/00  C2H6             g 8/88  C2H5OH           g 7/00  CH3OCH3        
  srd 01  CH3O2CH3         g 8/00  C2O              tpis79  *C3            
  n 4/98  C3H3,1-propynl   n 4/98  C3H3,2-propynl   g 2/00  C3H4,allene    
  g 1/00  C3H4,propyne     g 5/90  C3H4,cyclo-      g 3/01  C3H5,allyl     
  g 2/00  C3H6,propylene   g 1/00  C3H6,cyclo-      g 6/01  C3H6O,propylox 
  g 6/97  C3H6O,acetone    g 1/02  C3H6O,propanal   g 7/01  C3H7,n-propyl  
  g 9/85  C3H7,i-propyl    g 2/00  C3H8             g 2/00  C3H8O,1propanol
  g 2/00  C3H8O,2propanol  g 7/88  C3O2             g tpis  *C4            
  g 7/01  C4H2,butadiyne   g 8/00  C4H4,1,3-cyclo-  n10/92  C4H6,butadiene 
  n10/93  C4H6,1butyne     n10/93  C4H6,2butyne     g 8/00  C4H6,cyclo-    
  n 4/88  C4H8,1-butene    n 4/88  C4H8,cis2-buten  n 4/88  C4H8,tr2-butene
  n 4/88  C4H8,isobutene   g 8/00  C4H8,cyclo-      g10/00  (CH3COOH)2     
  n10/84  C4H9,n-butyl     n10/84  C4H9,i-butyl     g 1/93  C4H9,s-butyl   
  g 1/93  C4H9,t-butyl     g12/00  C4H10,n-butane   g 8/00  C4H10,isobutane
  g 8/00  *C5              g 5/90  C5H6,1,3cyclo-   g 1/93  C5H8,cyclo-    
  n 4/87  C5H10,1-pentene  g 2/01  C5H10,cyclo-     n10/84  C5H11,pentyl   
  g 1/93  C5H11,t-pentyl   n10/85  C5H12,n-pentane  n10/85  C5H12,i-pentane
  n10/85  CH3C(CH3)2CH3    g 2/93  C6H2             g11/00  C6H5,phenyl    
  g 8/00  C6H5O,phenoxy    g 8/00  C6H6             g 8/00  C6H5OH,phenol  
  g 1/93  C6H10,cyclo-     n 4/87  C6H12,1-hexene   g 6/90  C6H12,cyclo-   
  n10/83  C6H13,n-hexyl    g 6/01  C6H14,n-hexane   g 7/01  C7H7,benzyl    
  g 1/93  C7H8             g12/00  C7H8O,cresol-mx  n 4/87  C7H14,1-heptene
  n10/83  C7H15,n-heptyl   n10/85  C7H16,n-heptane  n10/85  C7H16,2-methylh
  n 4/89  C8H8,styrene     n10/86  C8H10,ethylbenz  n 4/87  C8H16,1-octene 
  n10/83  C8H17,n-octyl    n 4/85  C8H18,n-octane   n 4/85  C8H18,isooctane
  n10/83  C9H19,n-nonyl    g 3/01  C10H8,naphthale  n10/83  C10H21,n-decyl 
  g 8/00  C12H9,o-bipheny  g 8/00  C12H10,biphenyl  g 6/97  *H             
  g 1/01  HCO              g 6/01  HCCO             g 4/02  HO2            
  tpis78  *H2              g 5/01  HCHO,formaldehy  g 6/01  HCOOH          
  g 8/89  H2O              g 6/99  H2O2             g 6/01  (HCOOH)2       
  g 5/97  *O               g 4/02  *OH              tpis89  *O2            
  g 8/01  O3               n 4/83  C(gr)            n 4/83  C(gr)          
  n 4/83  C(gr)            g11/99  H2O(cr)          g 8/01  H2O(L)         
  g 8/01  H2O(L)         

 O/F =  50.707224

                       EFFECTIVE FUEL     EFFECTIVE OXIDANT        MIXTURE
 ENTHALPY                  h(2)/R              h(1)/R               h0/R
 (KG-MOL)(K)/KG       -0.53115398E+03     -0.48783267E+02     -0.58112151E+02

 KG-FORM.WT./KG             bi(2)               bi(1)               b0i
  *O                   0.19976863E-01      0.62502344E-01      0.61679916E-01
  *C                   0.49942157E-01      0.00000000E+00      0.96586421E-03
  *H                   0.79907451E-01      0.00000000E+00      0.15453827E-02

 POINT ITN      T            O           C           H 
   1   30     387.393     -11.212    -126.662     -43.993
   2    1     387.393     -11.226    -126.662     -44.000
 Pinf/Pt = 1.878290
   3    3     325.592     -11.492    -149.821     -51.251
 ADD  H2O(L)         
   3    1     326.064     -11.492    -149.611     -51.193
 Pinf/Pt = 1.746229
   3    3     329.420     -11.458    -148.133     -50.677
 REMOVE  H2O(L)         
   3    2     332.252     -11.459    -146.909     -50.340
 Pinf/Pt = 1.887811
   3    2     325.135     -11.494    -150.026     -51.315
 ADD  H2O(L)         
   3    1     325.830     -11.494    -149.715     -51.229
 Pinf/Pt = 1.746866
   3    3     329.403     -11.459    -148.141     -50.680
 REMOVE  H2O(L)         
   3    2     332.219     -11.459    -146.924     -50.344

 WARNING!!  DISCONTINUITY AT THE THROAT (ROCKET)
 Pinf/Pt = 1.753412
   3    2     331.874     -11.461    -147.072     -50.390
 Pinf/Pt = 1.760007
   3    2     331.528     -11.463    -147.220     -50.437
 Pinf/Pt = 1.766651
   3    2     331.182     -11.464    -147.370     -50.484
 Pinf/Pt = 1.773346
   3    2     330.834     -11.466    -147.520     -50.531
 Pinf/Pt = 1.780092
   3    2     330.486     -11.468    -147.670     -50.578
 Pinf/Pt = 1.786889
   3    2     330.136     -11.469    -147.822     -50.625
 Pinf/Pt = 1.793739
   3    2     329.786     -11.471    -147.974     -50.673
 Pinf/Pt = 1.800641
   3    2     329.434     -11.473    -148.127     -50.721
 Pinf/Pt = 1.807596
   3    2     329.082     -11.475    -148.281     -50.769
 Pinf/Pt = 1.814606
   3    2     328.728     -11.476    -148.436     -50.817
 Pinf/Pt = 1.821670
   3    2     328.373     -11.478    -148.591     -50.866
 Pinf/Pt = 1.828789
   3    2     328.018     -11.480    -148.747     -50.915
 Pinf/Pt = 1.835964
   3    2     327.661     -11.482    -148.904     -50.964
 Pinf/Pt = 1.843196
   3    2     327.303     -11.483    -149.062     -51.013
 Pinf/Pt = 1.850485
   3    2     326.945     -11.485    -149.220     -51.063
 Pinf/Pt = 1.857831
   3    2     326.585     -11.487    -149.380     -51.113
 Pinf/Pt = 1.865237
   3    2     326.224     -11.489    -149.540     -51.163
 ADD  H2O(L)         
   3    1     326.386     -11.489    -149.468     -51.143
   4    1     387.388     -11.226    -126.663     -44.000
   4    1     387.380     -11.226    -126.666     -44.001
   4    1     387.370     -11.226    -126.669     -44.002
   4    1     387.366     -11.226    -126.670     -44.002
   4    1     387.365     -11.226    -126.671     -44.002
   2    1     387.393     -11.212    -126.662     -43.993
 Pinf/Pt = 1.878290
   3    3     325.592     -11.478    -149.821     -51.244
 ADD  H2O(L)         
   3    1     326.427     -11.478    -149.450     -51.142
 Pinf/Pt = 1.747722
   3    3     329.764     -11.445    -147.983     -50.630
 REMOVE  H2O(L)         
   3    2     332.174     -11.445    -146.943     -50.343
 Pinf/Pt = 1.887726
   3    2     325.139     -11.480    -150.024     -51.307
 ADD  H2O(L)         
   3    2     326.194     -11.481    -149.553     -51.178
 Pinf/Pt = 1.748350
   3    3     329.748     -11.445    -147.991     -50.632
 REMOVE  H2O(L)         
   3    2     332.140     -11.446    -146.957     -50.348

 WARNING!!  DISCONTINUITY AT THE THROAT (ROCKET)
 Pinf/Pt = 1.754828
   3    2     331.800     -11.447    -147.104     -50.393
 Pinf/Pt = 1.761354
   3    2     331.458     -11.449    -147.251     -50.439
 Pinf/Pt = 1.767929
   3    2     331.115     -11.451    -147.398     -50.486
 Pinf/Pt = 1.774554
   3    2     330.772     -11.452    -147.547     -50.532
 Pinf/Pt = 1.781228
   3    2     330.427     -11.454    -147.696     -50.579
 Pinf/Pt = 1.787952
   3    2     330.082     -11.456    -147.846     -50.626
 Pinf/Pt = 1.794728
   3    2     329.735     -11.457    -147.996     -50.673
 Pinf/Pt = 1.801555
   3    2     329.388     -11.459    -148.147     -50.720
 Pinf/Pt = 1.808434
   3    2     329.039     -11.461    -148.300     -50.768
 Pinf/Pt = 1.815366
   3    2     328.690     -11.463    -148.452     -50.816
 Pinf/Pt = 1.822352
   3    2     328.339     -11.464    -148.606     -50.864
 Pinf/Pt = 1.829391
   3    2     327.988     -11.466    -148.760     -50.912
 Pinf/Pt = 1.836485
   3    2     327.635     -11.468    -148.915     -50.960
 Pinf/Pt = 1.843634
   3    2     327.282     -11.470    -149.071     -51.009
 ADD  H2O(L)         
   3    1     327.292     -11.470    -149.067     -51.008
   4    1     387.389     -11.212    -126.663     -43.993
   4    1     387.380     -11.212    -126.666     -43.994
   4    1     387.370     -11.212    -126.669     -43.995
   4    1     387.366     -11.212    -126.670     -43.995
   4    1     387.365     -11.212    -126.671     -43.995
 END OF CHAMBER ITERATIONS

 WARNING!!  ASSIGNED pip =   1.00000 IS NOT PERMITTED
 TO BE LESS THAN  Pinj/Pc =  1.00052. POINT OMITTED (ROCKET)





              THEORETICAL ROCKET PERFORMANCE ASSUMING EQUILIBRIUM

            COMPOSITION DURING EXPANSION FROM FINITE AREA COMBUSTOR

 Pin =   162.9 PSIA
 Ac/At = 29.7521      Pinj/Pinf =  1.000262
 CASE =                

             REACTANT                    WT FRACTION      ENERGY      TEMP
                                          (SEE NOTE)     KJ/KG-MOL      K  
 OXIDANT     O2(L)                        1.0000000    -12979.000     90.170
 FUEL        PMMA                         1.0000000   -442140.000    293.150

 O/F=   50.70722  %FUEL=  1.933966  R,EQ.RATIO= 0.043846  PHI,EQ.RATIO= 0.037819

                 INJECTOR  COMB END  THROAT
 Pinj/P            1.0000   1.0005   1.8441
 P, BAR            11.230   11.224   6.0896
 T, K              387.39   387.37   327.29
 RHO, KG/CU M    1.1165 1 1.1160 1 7.1664 0
 H, KJ/KG         -483.17  -483.20  -539.81
 U, KJ/KG         -583.75  -583.77  -624.78
 G, KJ/KG        -2840.54 -2840.42 -2531.47
 S, KJ/(KG)(K)     6.0852   6.0853   6.0853

 M, (1/n)          32.024   32.024   32.025
 MW, MOL WT        32.024   32.024   32.024
 (dLV/dLP)t      -1.00000 -1.00000 -1.02537
 (dLV/dLT)p        1.0000   1.0000   1.3988
 Cp, KJ/(KG)(K)    0.9506   0.9506   2.5627
 GAMMAs            1.3758   1.3758   1.2090
 SON VEL,M/SEC      372.0    372.0    320.5
 MACH NUMBER        0.000    0.020    1.050

 PERFORMANCE PARAMETERS

 Ae/At                      29.754  1.00000
 CSTAR, M/SEC                465.5    465.5
 CF                         0.0156   0.7230
 Ivac, M/SEC               13854.0    589.0
 Isp, M/SEC                    7.3    336.6


 MOLE FRACTIONS

 *CO2             0.03093  0.03093  0.03093
 H2O              0.02474  0.02474  0.02474
 *O2              0.94432  0.94432  0.94432
 H2O(L)           0.00000  0.00000  0.00001

  * THERMODYNAMIC PROPERTIES FITTED TO 20000.K

    PRODUCTS WHICH WERE CONSIDERED BUT WHOSE MOLE FRACTIONS
    WERE LESS THAN 5.000000E-06 FOR ALL ASSIGNED CONDITIONS

 *C              *CH             CH2             CH3             CH2OH          
 CH3O            CH4             CH3OH           CH3OOH          *CO            
 COOH            *C2             C2H             C2H2,acetylene  C2H2,vinylidene
 CH2CO,ketene    O(CH)2O         HO(CO)2OH       C2H3,vinyl      CH3CO,acetyl   
 C2H4            C2H4O,ethylen-o CH3CHO,ethanal  CH3COOH         OHCH2COOH      
 C2H5            C2H6            C2H5OH          CH3OCH3         CH3O2CH3       
 C2O             *C3             C3H3,1-propynl  C3H3,2-propynl  C3H4,allene    
 C3H4,propyne    C3H4,cyclo-     C3H5,allyl      C3H6,propylene  C3H6,cyclo-    
 C3H6O,propylox  C3H6O,acetone   C3H6O,propanal  C3H7,n-propyl   C3H7,i-propyl  
 C3H8            C3H8O,1propanol C3H8O,2propanol C3O2            *C4            
 C4H2,butadiyne  C4H4,1,3-cyclo- C4H6,butadiene  C4H6,1butyne    C4H6,2butyne   
 C4H6,cyclo-     C4H8,1-butene   C4H8,cis2-buten C4H8,tr2-butene C4H8,isobutene 
 C4H8,cyclo-     (CH3COOH)2      C4H9,n-butyl    C4H9,i-butyl    C4H9,s-butyl   
 C4H9,t-butyl    C4H10,n-butane  C4H10,isobutane *C5             C5H6,1,3cyclo- 
 C5H8,cyclo-     C5H10,1-pentene C5H10,cyclo-    C5H11,pentyl    C5H11,t-pentyl 
 C5H12,n-pentane C5H12,i-pentane CH3C(CH3)2CH3   C6H2            C6H5,phenyl    
 C6H5O,phenoxy   C6H6            C6H5OH,phenol   C6H10,cyclo-    C6H12,1-hexene 
 C6H12,cyclo-    C6H13,n-hexyl   C6H14,n-hexane  C7H7,benzyl     C7H8           
 C7H8O,cresol-mx C7H14,1-heptene C7H15,n-heptyl  C7H16,n-heptane C7H16,2-methylh
 C8H8,styrene    C8H10,ethylbenz C8H16,1-octene  C8H17,n-octyl   C8H18,n-octane 
 C8H18,isooctane C9H19,n-nonyl   C10H8,naphthale C10H21,n-decyl  C12H9,o-bipheny
 C12H10,biphenyl *H              HCO             HCCO            HO2            
 *H2             HCHO,formaldehy HCOOH           H2O2            (HCOOH)2       
 *O              *OH             O3              C(gr)           H2O(cr)        

 NOTE. WEIGHT FRACTION OF FUEL IN TOTAL FUELS AND OF OXIDANT IN TOTAL OXIDANTS






 WARNING!!  ASSIGNED pip =   0.00000 IS NOT PERMITTED
 TO BE LESS THAN  Pinj/Pc =  1.00052. POINT OMITTED (ROCKET)





              THEORETICAL ROCKET PERFORMANCE ASSUMING EQUILIBRIUM

            COMPOSITION DURING EXPANSION FROM FINITE AREA COMBUSTOR

 Pin =   162.9 PSIA
 Ac/At = 29.7521      Pinj/Pinf =  1.000262
 CASE =                

             REACTANT                    WT FRACTION      ENERGY      TEMP
                                          (SEE NOTE)     KJ/KG-MOL      K  
 OXIDANT     O2(L)                        1.0000000    -12979.000     90.170
 FUEL        PMMA                         1.0000000   -442140.000    293.150

 O/F=   50.70722  %FUEL=  1.933966  R,EQ.RATIO= 0.043846  PHI,EQ.RATIO= 0.037819

                 INJECTOR  COMB END  THROAT
 Pinj/P            1.0000   1.0005   1.8441
 P, BAR            11.230   11.224   6.0896
 T, K              387.39   387.37   327.29
 RHO, KG/CU M    1.1165 1 1.1160 1 7.1664 0
 H, KJ/KG         -483.17  -483.20  -539.81
 U, KJ/KG         -583.75  -583.77  -624.78
 G, KJ/KG        -2840.54 -2840.42 -2531.47
 S, KJ/(KG)(K)     6.0852   6.0853   6.0853

 M, (1/n)          32.024   32.024   32.025
 MW, MOL WT        32.024   32.024   32.024
 (dLV/dLP)t      -1.00000 -1.00000 -1.02537
 (dLV/dLT)p        1.0000   1.0000   1.3988
 Cp, KJ/(KG)(K)    0.9506   0.9506   2.5627
 GAMMAs            1.3758   1.3758   1.2090
 SON VEL,M/SEC      372.0    372.0    320.5
 MACH NUMBER        0.000    0.020    1.050

 PERFORMANCE PARAMETERS

 Ae/At                      29.754  1.00000
 CSTAR, M/SEC                465.5    465.5
 CF                         0.0156   0.7230
 Ivac, M/SEC               13854.0    589.0
 Isp, M/SEC                    7.3    336.6


 MOLE FRACTIONS

 *CO2             0.03093  0.03093  0.03093
 H2O              0.02474  0.02474  0.02474
 *O2              0.94432  0.94432  0.94432
 H2O(L)           0.00000  0.00000  0.00001

  * THERMODYNAMIC PROPERTIES FITTED TO 20000.K

    PRODUCTS WHICH WERE CONSIDERED BUT WHOSE MOLE FRACTIONS
    WERE LESS THAN 5.000000E-06 FOR ALL ASSIGNED CONDITIONS

 *C              *CH             CH2             CH3             CH2OH          
 CH3O            CH4             CH3OH           CH3OOH          *CO            
 COOH            *C2             C2H             C2H2,acetylene  C2H2,vinylidene
 CH2CO,ketene    O(CH)2O         HO(CO)2OH       C2H3,vinyl      CH3CO,acetyl   
 C2H4            C2H4O,ethylen-o CH3CHO,ethanal  CH3COOH         OHCH2COOH      
 C2H5            C2H6            C2H5OH          CH3OCH3         CH3O2CH3       
 C2O             *C3             C3H3,1-propynl  C3H3,2-propynl  C3H4,allene    
 C3H4,propyne    C3H4,cyclo-     C3H5,allyl      C3H6,propylene  C3H6,cyclo-    
 C3H6O,propylox  C3H6O,acetone   C3H6O,propanal  C3H7,n-propyl   C3H7,i-propyl  
 C3H8            C3H8O,1propanol C3H8O,2propanol C3O2            *C4            
 C4H2,butadiyne  C4H4,1,3-cyclo- C4H6,butadiene  C4H6,1butyne    C4H6,2butyne   
 C4H6,cyclo-     C4H8,1-butene   C4H8,cis2-buten C4H8,tr2-butene C4H8,isobutene 
 C4H8,cyclo-     (CH3COOH)2      C4H9,n-butyl    C4H9,i-butyl    C4H9,s-butyl   
 C4H9,t-butyl    C4H10,n-butane  C4H10,isobutane *C5             C5H6,1,3cyclo- 
 C5H8,cyclo-     C5H10,1-pentene C5H10,cyclo-    C5H11,pentyl    C5H11,t-pentyl 
 C5H12,n-pentane C5H12,i-pentane CH3C(CH3)2CH3   C6H2            C6H5,phenyl    
 C6H5O,phenoxy   C6H6            C6H5OH,phenol   C6H10,cyclo-    C6H12,1-hexene 
 C6H12,cyclo-    C6H13,n-hexyl   C6H14,n-hexane  C7H7,benzyl     C7H8           
 C7H8O,cresol-mx C7H14,1-heptene C7H15,n-heptyl  C7H16,n-heptane C7H16,2-methylh
 C8H8,styrene    C8H10,ethylbenz C8H16,1-octene  C8H17,n-octyl   C8H18,n-octane 
 C8H18,isooctane C9H19,n-nonyl   C10H8,naphthale C10H21,n-decyl  C12H9,o-bipheny
 C12H10,biphenyl *H              HCO             HCCO            HO2            
 *H2             HCHO,formaldehy HCOOH           H2O2            (HCOOH)2       
 *O              *OH             O3              C(gr)           H2O(cr)        

 NOTE. WEIGHT FRACTION OF FUEL IN TOTAL FUELS AND OF OXIDANT IN TOTAL OXIDANTS






 WARNING!!  ASSIGNED pip =   0.00000 IS NOT PERMITTED
 TO BE LESS THAN  Pinj/Pc =  1.00052. POINT OMITTED (ROCKET)





              THEORETICAL ROCKET PERFORMANCE ASSUMING EQUILIBRIUM

            COMPOSITION DURING EXPANSION FROM FINITE AREA COMBUSTOR

 Pin =   162.9 PSIA
 Ac/At = 29.7521      Pinj/Pinf =  1.000262
 CASE =                

             REACTANT                    WT FRACTION      ENERGY      TEMP
                                          (SEE NOTE)     KJ/KG-MOL      K  
 OXIDANT     O2(L)                        1.0000000    -12979.000     90.170
 FUEL        PMMA                         1.0000000   -442140.000    293.150

 O/F=   50.70722  %FUEL=  1.933966  R,EQ.RATIO= 0.043846  PHI,EQ.RATIO= 0.037819

                 INJECTOR  COMB END  THROAT
 Pinj/P            1.0000   1.0005   1.8441
 P, BAR            11.230   11.224   6.0896
 T, K              387.39   387.37   327.29
 RHO, KG/CU M    1.1165 1 1.1160 1 7.1664 0
 H, KJ/KG         -483.17  -483.20  -539.81
 U, KJ/KG         -583.75  -583.77  -624.78
 G, KJ/KG        -2840.54 -2840.42 -2531.47
 S, KJ/(KG)(K)     6.0852   6.0853   6.0853

 M, (1/n)          32.024   32.024   32.025
 MW, MOL WT        32.024   32.024   32.024
 (dLV/dLP)t      -1.00000 -1.00000 -1.02537
 (dLV/dLT)p        1.0000   1.0000   1.3988
 Cp, KJ/(KG)(K)    0.9506   0.9506   2.5627
 GAMMAs            1.3758   1.3758   1.2090
 SON VEL,M/SEC      372.0    372.0    320.5
 MACH NUMBER        0.000    0.020    1.050

 PERFORMANCE PARAMETERS

 Ae/At                      29.754  1.00000
 CSTAR, M/SEC                465.5    465.5
 CF                         0.0156   0.7230
 Ivac, M/SEC               13854.0    589.0
 Isp, M/SEC                    7.3    336.6


 MOLE FRACTIONS

 *CO2             0.03093  0.03093  0.03093
 H2O              0.02474  0.02474  0.02474
 *O2              0.94432  0.94432  0.94432
 H2O(L)           0.00000  0.00000  0.00001

  * THERMODYNAMIC PROPERTIES FITTED TO 20000.K

    PRODUCTS WHICH WERE CONSIDERED BUT WHOSE MOLE FRACTIONS
    WERE LESS THAN 5.000000E-06 FOR ALL ASSIGNED CONDITIONS

 *C              *CH             CH2             CH3             CH2OH          
 CH3O            CH4             CH3OH           CH3OOH          *CO            
 COOH            *C2             C2H             C2H2,acetylene  C2H2,vinylidene
 CH2CO,ketene    O(CH)2O         HO(CO)2OH       C2H3,vinyl      CH3CO,acetyl   
 C2H4            C2H4O,ethylen-o CH3CHO,ethanal  CH3COOH         OHCH2COOH      
 C2H5            C2H6            C2H5OH          CH3OCH3         CH3O2CH3       
 C2O             *C3             C3H3,1-propynl  C3H3,2-propynl  C3H4,allene    
 C3H4,propyne    C3H4,cyclo-     C3H5,allyl      C3H6,propylene  C3H6,cyclo-    
 C3H6O,propylox  C3H6O,acetone   C3H6O,propanal  C3H7,n-propyl   C3H7,i-propyl  
 C3H8            C3H8O,1propanol C3H8O,2propanol C3O2            *C4            
 C4H2,butadiyne  C4H4,1,3-cyclo- C4H6,butadiene  C4H6,1butyne    C4H6,2butyne   
 C4H6,cyclo-     C4H8,1-butene   C4H8,cis2-buten C4H8,tr2-butene C4H8,isobutene 
 C4H8,cyclo-     (CH3COOH)2      C4H9,n-butyl    C4H9,i-butyl    C4H9,s-butyl   
 C4H9,t-butyl    C4H10,n-butane  C4H10,isobutane *C5             C5H6,1,3cyclo- 
 C5H8,cyclo-     C5H10,1-pentene C5H10,cyclo-    C5H11,pentyl    C5H11,t-pentyl 
 C5H12,n-pentane C5H12,i-pentane CH3C(CH3)2CH3   C6H2            C6H5,phenyl    
 C6H5O,phenoxy   C6H6            C6H5OH,phenol   C6H10,cyclo-    C6H12,1-hexene 
 C6H12,cyclo-    C6H13,n-hexyl   C6H14,n-hexane  C7H7,benzyl     C7H8           
 C7H8O,cresol-mx C7H14,1-heptene C7H15,n-heptyl  C7H16,n-heptane C7H16,2-methylh
 C8H8,styrene    C8H10,ethylbenz C8H16,1-octene  C8H17,n-octyl   C8H18,n-octane 
 C8H18,isooctane C9H19,n-nonyl   C10H8,naphthale C10H21,n-decyl  C12H9,o-bipheny
 C12H10,biphenyl *H              HCO             HCCO            HO2            
 *H2             HCHO,formaldehy HCOOH           H2O2            (HCOOH)2       
 *O              *OH             O3              C(gr)           H2O(cr)        

 NOTE. WEIGHT FRACTION OF FUEL IN TOTAL FUELS AND OF OXIDANT IN TOTAL OXIDANTS






 WARNING!!  ASSIGNED pip =   0.00000 IS NOT PERMITTED
 TO BE LESS THAN  Pinj/Pc =  1.00052. POINT OMITTED (ROCKET)





              THEORETICAL ROCKET PERFORMANCE ASSUMING EQUILIBRIUM

            COMPOSITION DURING EXPANSION FROM FINITE AREA COMBUSTOR

 Pin =   162.9 PSIA
 Ac/At = 29.7521      Pinj/Pinf =  1.000262
 CASE =                

             REACTANT                    WT FRACTION      ENERGY      TEMP
                                          (SEE NOTE)     KJ/KG-MOL      K  
 OXIDANT     O2(L)                        1.0000000    -12979.000     90.170
 FUEL        PMMA                         1.0000000   -442140.000    293.150

 O/F=   50.70722  %FUEL=  1.933966  R,EQ.RATIO= 0.043846  PHI,EQ.RATIO= 0.037819

                 INJECTOR  COMB END  THROAT
 Pinj/P            1.0000   1.0005   1.8441
 P, BAR            11.230   11.224   6.0896
 T, K              387.39   387.37   327.29
 RHO, KG/CU M    1.1165 1 1.1160 1 7.1664 0
 H, KJ/KG         -483.17  -483.20  -539.81
 U, KJ/KG         -583.75  -583.77  -624.78
 G, KJ/KG        -2840.54 -2840.42 -2531.47
 S, KJ/(KG)(K)     6.0852   6.0853   6.0853

 M, (1/n)          32.024   32.024   32.025
 MW, MOL WT        32.024   32.024   32.024
 (dLV/dLP)t      -1.00000 -1.00000 -1.02537
 (dLV/dLT)p        1.0000   1.0000   1.3988
 Cp, KJ/(KG)(K)    0.9506   0.9506   2.5627
 GAMMAs            1.3758   1.3758   1.2090
 SON VEL,M/SEC      372.0    372.0    320.5
 MACH NUMBER        0.000    0.020    1.050

 PERFORMANCE PARAMETERS

 Ae/At                      29.754  1.00000
 CSTAR, M/SEC                465.5    465.5
 CF                         0.0156   0.7230
 Ivac, M/SEC               13854.0    589.0
 Isp, M/SEC                    7.3    336.6


 MOLE FRACTIONS

 *CO2             0.03093  0.03093  0.03093
 H2O              0.02474  0.02474  0.02474
 *O2              0.94432  0.94432  0.94432
 H2O(L)           0.00000  0.00000  0.00001

  * THERMODYNAMIC PROPERTIES FITTED TO 20000.K

    PRODUCTS WHICH WERE CONSIDERED BUT WHOSE MOLE FRACTIONS
    WERE LESS THAN 5.000000E-06 FOR ALL ASSIGNED CONDITIONS

 *C              *CH             CH2             CH3             CH2OH          
 CH3O            CH4             CH3OH           CH3OOH          *CO            
 COOH            *C2             C2H             C2H2,acetylene  C2H2,vinylidene
 CH2CO,ketene    O(CH)2O         HO(CO)2OH       C2H3,vinyl      CH3CO,acetyl   
 C2H4            C2H4O,ethylen-o CH3CHO,ethanal  CH3COOH         OHCH2COOH      
 C2H5            C2H6            C2H5OH          CH3OCH3         CH3O2CH3       
 C2O             *C3             C3H3,1-propynl  C3H3,2-propynl  C3H4,allene    
 C3H4,propyne    C3H4,cyclo-     C3H5,allyl      C3H6,propylene  C3H6,cyclo-    
 C3H6O,propylox  C3H6O,acetone   C3H6O,propanal  C3H7,n-propyl   C3H7,i-propyl  
 C3H8            C3H8O,1propanol C3H8O,2propanol C3O2            *C4            
 C4H2,butadiyne  C4H4,1,3-cyclo- C4H6,butadiene  C4H6,1butyne    C4H6,2butyne   
 C4H6,cyclo-     C4H8,1-butene   C4H8,cis2-buten C4H8,tr2-butene C4H8,isobutene 
 C4H8,cyclo-     (CH3COOH)2      C4H9,n-butyl    C4H9,i-butyl    C4H9,s-butyl   
 C4H9,t-butyl    C4H10,n-butane  C4H10,isobutane *C5             C5H6,1,3cyclo- 
 C5H8,cyclo-     C5H10,1-pentene C5H10,cyclo-    C5H11,pentyl    C5H11,t-pentyl 
 C5H12,n-pentane C5H12,i-pentane CH3C(CH3)2CH3   C6H2            C6H5,phenyl    
 C6H5O,phenoxy   C6H6            C6H5OH,phenol   C6H10,cyclo-    C6H12,1-hexene 
 C6H12,cyclo-    C6H13,n-hexyl   C6H14,n-hexane  C7H7,benzyl     C7H8           
 C7H8O,cresol-mx C7H14,1-heptene C7H15,n-heptyl  C7H16,n-heptane C7H16,2-methylh
 C8H8,styrene    C8H10,ethylbenz C8H16,1-octene  C8H17,n-octyl   C8H18,n-octane 
 C8H18,isooctane C9H19,n-nonyl   C10H8,naphthale C10H21,n-decyl  C12H9,o-bipheny
 C12H10,biphenyl *H              HCO             HCCO            HO2            
 *H2             HCHO,formaldehy HCOOH           H2O2            (HCOOH)2       
 *O              *OH             O3              C(gr)           H2O(cr)        

 NOTE. WEIGHT FRACTION OF FUEL IN TOTAL FUELS AND OF OXIDANT IN TOTAL OXIDANTS






 WARNING!!  ASSIGNED pip =   0.00000 IS NOT PERMITTED
 TO BE LESS THAN  Pinj/Pc =  1.00052. POINT OMITTED (ROCKET)





              THEORETICAL ROCKET PERFORMANCE ASSUMING EQUILIBRIUM

            COMPOSITION DURING EXPANSION FROM FINITE AREA COMBUSTOR

 Pin =   162.9 PSIA
 Ac/At = 29.7521      Pinj/Pinf =  1.000262
 CASE =                

             REACTANT                    WT FRACTION      ENERGY      TEMP
                                          (SEE NOTE)     KJ/KG-MOL      K  
 OXIDANT     O2(L)                        1.0000000    -12979.000     90.170
 FUEL        PMMA                         1.0000000   -442140.000    293.150

 O/F=   50.70722  %FUEL=  1.933966  R,EQ.RATIO= 0.043846  PHI,EQ.RATIO= 0.037819

                 INJECTOR  COMB END  THROAT
 Pinj/P            1.0000   1.0005   1.8441
 P, BAR            11.230   11.224   6.0896
 T, K              387.39   387.37   327.29
 RHO, KG/CU M    1.1165 1 1.1160 1 7.1664 0
 H, KJ/KG         -483.17  -483.20  -539.81
 U, KJ/KG         -583.75  -583.77  -624.78
 G, KJ/KG        -2840.54 -2840.42 -2531.47
 S, KJ/(KG)(K)     6.0852   6.0853   6.0853

 M, (1/n)          32.024   32.024   32.025
 MW, MOL WT        32.024   32.024   32.024
 (dLV/dLP)t      -1.00000 -1.00000 -1.02537
 (dLV/dLT)p        1.0000   1.0000   1.3988
 Cp, KJ/(KG)(K)    0.9506   0.9506   2.5627
 GAMMAs            1.3758   1.3758   1.2090
 SON VEL,M/SEC      372.0    372.0    320.5
 MACH NUMBER        0.000    0.020    1.050

 PERFORMANCE PARAMETERS

 Ae/At                      29.754  1.00000
 CSTAR, M/SEC                465.5    465.5
 CF                         0.0156   0.7230
 Ivac, M/SEC               13854.0    589.0
 Isp, M/SEC                    7.3    336.6


 MOLE FRACTIONS

 *CO2             0.03093  0.03093  0.03093
 H2O              0.02474  0.02474  0.02474
 *O2              0.94432  0.94432  0.94432
 H2O(L)           0.00000  0.00000  0.00001

  * THERMODYNAMIC PROPERTIES FITTED TO 20000.K

    PRODUCTS WHICH WERE CONSIDERED BUT WHOSE MOLE FRACTIONS
    WERE LESS THAN 5.000000E-06 FOR ALL ASSIGNED CONDITIONS

 *C              *CH             CH2             CH3             CH2OH          
 CH3O            CH4             CH3OH           CH3OOH          *CO            
 COOH            *C2             C2H             C2H2,acetylene  C2H2,vinylidene
 CH2CO,ketene    O(CH)2O         HO(CO)2OH       C2H3,vinyl      CH3CO,acetyl   
 C2H4            C2H4O,ethylen-o CH3CHO,ethanal  CH3COOH         OHCH2COOH      
 C2H5            C2H6            C2H5OH          CH3OCH3         CH3O2CH3       
 C2O             *C3             C3H3,1-propynl  C3H3,2-propynl  C3H4,allene    
 C3H4,propyne    C3H4,cyclo-     C3H5,allyl      C3H6,propylene  C3H6,cyclo-    
 C3H6O,propylox  C3H6O,acetone   C3H6O,propanal  C3H7,n-propyl   C3H7,i-propyl  
 C3H8            C3H8O,1propanol C3H8O,2propanol C3O2            *C4            
 C4H2,butadiyne  C4H4,1,3-cyclo- C4H6,butadiene  C4H6,1butyne    C4H6,2butyne   
 C4H6,cyclo-     C4H8,1-butene   C4H8,cis2-buten C4H8,tr2-butene C4H8,isobutene 
 C4H8,cyclo-     (CH3COOH)2      C4H9,n-butyl    C4H9,i-butyl    C4H9,s-butyl   
 C4H9,t-butyl    C4H10,n-butane  C4H10,isobutane *C5             C5H6,1,3cyclo- 
 C5H8,cyclo-     C5H10,1-pentene C5H10,cyclo-    C5H11,pentyl    C5H11,t-pentyl 
 C5H12,n-pentane C5H12,i-pentane CH3C(CH3)2CH3   C6H2            C6H5,phenyl    
 C6H5O,phenoxy   C6H6            C6H5OH,phenol   C6H10,cyclo-    C6H12,1-hexene 
 C6H12,cyclo-    C6H13,n-hexyl   C6H14,n-hexane  C7H7,benzyl     C7H8           
 C7H8O,cresol-mx C7H14,1-heptene C7H15,n-heptyl  C7H16,n-heptane C7H16,2-methylh
 C8H8,styrene    C8H10,ethylbenz C8H16,1-octene  C8H17,n-octyl   C8H18,n-octane 
 C8H18,isooctane C9H19,n-nonyl   C10H8,naphthale C10H21,n-decyl  C12H9,o-bipheny
 C12H10,biphenyl *H              HCO             HCCO            HO2            
 *H2             HCHO,formaldehy HCOOH           H2O2            (HCOOH)2       
 *O              *OH             O3              C(gr)           H2O(cr)        

 NOTE. WEIGHT FRACTION OF FUEL IN TOTAL FUELS AND OF OXIDANT IN TOTAL OXIDANTS






 WARNING!!  ASSIGNED pip =   0.00000 IS NOT PERMITTED
 TO BE LESS THAN  Pinj/Pc =  1.00052. POINT OMITTED (ROCKET)





              THEORETICAL ROCKET PERFORMANCE ASSUMING EQUILIBRIUM

            COMPOSITION DURING EXPANSION FROM FINITE AREA COMBUSTOR

 Pin =   162.9 PSIA
 Ac/At = 29.7521      Pinj/Pinf =  1.000262
 CASE =                

             REACTANT                    WT FRACTION      ENERGY      TEMP
                                          (SEE NOTE)     KJ/KG-MOL      K  
 OXIDANT     O2(L)                        1.0000000    -12979.000     90.170
 FUEL        PMMA                         1.0000000   -442140.000    293.150

 O/F=   50.70722  %FUEL=  1.933966  R,EQ.RATIO= 0.043846  PHI,EQ.RATIO= 0.037819

                 INJECTOR  COMB END  THROAT
 Pinj/P            1.0000   1.0005   1.8441
 P, BAR            11.230   11.224   6.0896
 T, K              387.39   387.37   327.29
 RHO, KG/CU M    1.1165 1 1.1160 1 7.1664 0
 H, KJ/KG         -483.17  -483.20  -539.81
 U, KJ/KG         -583.75  -583.77  -624.78
 G, KJ/KG        -2840.54 -2840.42 -2531.47
 S, KJ/(KG)(K)     6.0852   6.0853   6.0853

 M, (1/n)          32.024   32.024   32.025
 MW, MOL WT        32.024   32.024   32.024
 (dLV/dLP)t      -1.00000 -1.00000 -1.02537
 (dLV/dLT)p        1.0000   1.0000   1.3988
 Cp, KJ/(KG)(K)    0.9506   0.9506   2.5627
 GAMMAs            1.3758   1.3758   1.2090
 SON VEL,M/SEC      372.0    372.0    320.5
 MACH NUMBER        0.000    0.020    1.050

 PERFORMANCE PARAMETERS

 Ae/At                      29.754  1.00000
 CSTAR, M/SEC                465.5    465.5
 CF                         0.0156   0.7230
 Ivac, M/SEC               13854.0    589.0
 Isp, M/SEC                    7.3    336.6


 MOLE FRACTIONS

 *CO2             0.03093  0.03093  0.03093
 H2O              0.02474  0.02474  0.02474
 *O2              0.94432  0.94432  0.94432
 H2O(L)           0.00000  0.00000  0.00001

  * THERMODYNAMIC PROPERTIES FITTED TO 20000.K

    PRODUCTS WHICH WERE CONSIDERED BUT WHOSE MOLE FRACTIONS
    WERE LESS THAN 5.000000E-06 FOR ALL ASSIGNED CONDITIONS

 *C              *CH             CH2             CH3             CH2OH          
 CH3O            CH4             CH3OH           CH3OOH          *CO            
 COOH            *C2             C2H             C2H2,acetylene  C2H2,vinylidene
 CH2CO,ketene    O(CH)2O         HO(CO)2OH       C2H3,vinyl      CH3CO,acetyl   
 C2H4            C2H4O,ethylen-o CH3CHO,ethanal  CH3COOH         OHCH2COOH      
 C2H5            C2H6            C2H5OH          CH3OCH3         CH3O2CH3       
 C2O             *C3             C3H3,1-propynl  C3H3,2-propynl  C3H4,allene    
 C3H4,propyne    C3H4,cyclo-     C3H5,allyl      C3H6,propylene  C3H6,cyclo-    
 C3H6O,propylox  C3H6O,acetone   C3H6O,propanal  C3H7,n-propyl   C3H7,i-propyl  
 C3H8            C3H8O,1propanol C3H8O,2propanol C3O2            *C4            
 C4H2,butadiyne  C4H4,1,3-cyclo- C4H6,butadiene  C4H6,1butyne    C4H6,2butyne   
 C4H6,cyclo-     C4H8,1-butene   C4H8,cis2-buten C4H8,tr2-butene C4H8,isobutene 
 C4H8,cyclo-     (CH3COOH)2      C4H9,n-butyl    C4H9,i-butyl    C4H9,s-butyl   
 C4H9,t-butyl    C4H10,n-butane  C4H10,isobutane *C5             C5H6,1,3cyclo- 
 C5H8,cyclo-     C5H10,1-pentene C5H10,cyclo-    C5H11,pentyl    C5H11,t-pentyl 
 C5H12,n-pentane C5H12,i-pentane CH3C(CH3)2CH3   C6H2            C6H5,phenyl    
 C6H5O,phenoxy   C6H6            C6H5OH,phenol   C6H10,cyclo-    C6H12,1-hexene 
 C6H12,cyclo-    C6H13,n-hexyl   C6H14,n-hexane  C7H7,benzyl     C7H8           
 C7H8O,cresol-mx C7H14,1-heptene C7H15,n-heptyl  C7H16,n-heptane C7H16,2-methylh
 C8H8,styrene    C8H10,ethylbenz C8H16,1-octene  C8H17,n-octyl   C8H18,n-octane 
 C8H18,isooctane C9H19,n-nonyl   C10H8,naphthale C10H21,n-decyl  C12H9,o-bipheny
 C12H10,biphenyl *H              HCO             HCCO            HO2            
 *H2             HCHO,formaldehy HCOOH           H2O2            (HCOOH)2       
 *O              *OH             O3              C(gr)           H2O(cr)        

 NOTE. WEIGHT FRACTION OF FUEL IN TOTAL FUELS AND OF OXIDANT IN TOTAL OXIDANTS






 WARNING!!  ASSIGNED pip =   0.00000 IS NOT PERMITTED
 TO BE LESS THAN  Pinj/Pc =  1.00052. POINT OMITTED (ROCKET)





              THEORETICAL ROCKET PERFORMANCE ASSUMING EQUILIBRIUM

            COMPOSITION DURING EXPANSION FROM FINITE AREA COMBUSTOR

 Pin =   162.9 PSIA
 Ac/At = 29.7521      Pinj/Pinf =  1.000262
 CASE =                

             REACTANT                    WT FRACTION      ENERGY      TEMP
                                          (SEE NOTE)     KJ/KG-MOL      K  
 OXIDANT     O2(L)                        1.0000000    -12979.000     90.170
 FUEL        PMMA                         1.0000000   -442140.000    293.150

 O/F=   50.70722  %FUEL=  1.933966  R,EQ.RATIO= 0.043846  PHI,EQ.RATIO= 0.037819

                 INJECTOR  COMB END  THROAT
 Pinj/P            1.0000   1.0005   1.8441
 P, BAR            11.230   11.224   6.0896
 T, K              387.39   387.37   327.29
 RHO, KG/CU M    1.1165 1 1.1160 1 7.1664 0
 H, KJ/KG         -483.17  -483.20  -539.81
 U, KJ/KG         -583.75  -583.77  -624.78
 G, KJ/KG        -2840.54 -2840.42 -2531.47
 S, KJ/(KG)(K)     6.0852   6.0853   6.0853

 M, (1/n)          32.024   32.024   32.025
 MW, MOL WT        32.024   32.024   32.024
 (dLV/dLP)t      -1.00000 -1.00000 -1.02537
 (dLV/dLT)p        1.0000   1.0000   1.3988
 Cp, KJ/(KG)(K)    0.9506   0.9506   2.5627
 GAMMAs            1.3758   1.3758   1.2090
 SON VEL,M/SEC      372.0    372.0    320.5
 MACH NUMBER        0.000    0.020    1.050

 PERFORMANCE PARAMETERS

 Ae/At                      29.754  1.00000
 CSTAR, M/SEC                465.5    465.5
 CF                         0.0156   0.7230
 Ivac, M/SEC               13854.0    589.0
 Isp, M/SEC                    7.3    336.6


 MOLE FRACTIONS

 *CO2             0.03093  0.03093  0.03093
 H2O              0.02474  0.02474  0.02474
 *O2              0.94432  0.94432  0.94432
 H2O(L)           0.00000  0.00000  0.00001

  * THERMODYNAMIC PROPERTIES FITTED TO 20000.K

    PRODUCTS WHICH WERE CONSIDERED BUT WHOSE MOLE FRACTIONS
    WERE LESS THAN 5.000000E-06 FOR ALL ASSIGNED CONDITIONS

 *C              *CH             CH2             CH3             CH2OH          
 CH3O            CH4             CH3OH           CH3OOH          *CO            
 COOH            *C2             C2H             C2H2,acetylene  C2H2,vinylidene
 CH2CO,ketene    O(CH)2O         HO(CO)2OH       C2H3,vinyl      CH3CO,acetyl   
 C2H4            C2H4O,ethylen-o CH3CHO,ethanal  CH3COOH         OHCH2COOH      
 C2H5            C2H6            C2H5OH          CH3OCH3         CH3O2CH3       
 C2O             *C3             C3H3,1-propynl  C3H3,2-propynl  C3H4,allene    
 C3H4,propyne    C3H4,cyclo-     C3H5,allyl      C3H6,propylene  C3H6,cyclo-    
 C3H6O,propylox  C3H6O,acetone   C3H6O,propanal  C3H7,n-propyl   C3H7,i-propyl  
 C3H8            C3H8O,1propanol C3H8O,2propanol C3O2            *C4            
 C4H2,butadiyne  C4H4,1,3-cyclo- C4H6,butadiene  C4H6,1butyne    C4H6,2butyne   
 C4H6,cyclo-     C4H8,1-butene   C4H8,cis2-buten C4H8,tr2-butene C4H8,isobutene 
 C4H8,cyclo-     (CH3COOH)2      C4H9,n-butyl    C4H9,i-butyl    C4H9,s-butyl   
 C4H9,t-butyl    C4H10,n-butane  C4H10,isobutane *C5             C5H6,1,3cyclo- 
 C5H8,cyclo-     C5H10,1-pentene C5H10,cyclo-    C5H11,pentyl    C5H11,t-pentyl 
 C5H12,n-pentane C5H12,i-pentane CH3C(CH3)2CH3   C6H2            C6H5,phenyl    
 C6H5O,phenoxy   C6H6            C6H5OH,phenol   C6H10,cyclo-    C6H12,1-hexene 
 C6H12,cyclo-    C6H13,n-hexyl   C6H14,n-hexane  C7H7,benzyl     C7H8           
 C7H8O,cresol-mx C7H14,1-heptene C7H15,n-heptyl  C7H16,n-heptane C7H16,2-methylh
 C8H8,styrene    C8H10,ethylbenz C8H16,1-octene  C8H17,n-octyl   C8H18,n-octane 
 C8H18,isooctane C9H19,n-nonyl   C10H8,naphthale C10H21,n-decyl  C12H9,o-bipheny
 C12H10,biphenyl *H              HCO             HCCO            HO2            
 *H2             HCHO,formaldehy HCOOH           H2O2            (HCOOH)2       
 *O              *OH             O3              C(gr)           H2O(cr)        

 NOTE. WEIGHT FRACTION OF FUEL IN TOTAL FUELS AND OF OXIDANT IN TOTAL OXIDANTS






 WARNING!!  ASSIGNED pip =   0.00000 IS NOT PERMITTED
 TO BE LESS THAN  Pinj/Pc =  1.00052. POINT OMITTED (ROCKET)





              THEORETICAL ROCKET PERFORMANCE ASSUMING EQUILIBRIUM

            COMPOSITION DURING EXPANSION FROM FINITE AREA COMBUSTOR

 Pin =   162.9 PSIA
 Ac/At = 29.7521      Pinj/Pinf =  1.000262
 CASE =                

             REACTANT                    WT FRACTION      ENERGY      TEMP
                                          (SEE NOTE)     KJ/KG-MOL      K  
 OXIDANT     O2(L)                        1.0000000    -12979.000     90.170
 FUEL        PMMA                         1.0000000   -442140.000    293.150

 O/F=   50.70722  %FUEL=  1.933966  R,EQ.RATIO= 0.043846  PHI,EQ.RATIO= 0.037819

                 INJECTOR  COMB END  THROAT
 Pinj/P            1.0000   1.0005   1.8441
 P, BAR            11.230   11.224   6.0896
 T, K              387.39   387.37   327.29
 RHO, KG/CU M    1.1165 1 1.1160 1 7.1664 0
 H, KJ/KG         -483.17  -483.20  -539.81
 U, KJ/KG         -583.75  -583.77  -624.78
 G, KJ/KG        -2840.54 -2840.42 -2531.47
 S, KJ/(KG)(K)     6.0852   6.0853   6.0853

 M, (1/n)          32.024   32.024   32.025
 MW, MOL WT        32.024   32.024   32.024
 (dLV/dLP)t      -1.00000 -1.00000 -1.02537
 (dLV/dLT)p        1.0000   1.0000   1.3988
 Cp, KJ/(KG)(K)    0.9506   0.9506   2.5627
 GAMMAs            1.3758   1.3758   1.2090
 SON VEL,M/SEC      372.0    372.0    320.5
 MACH NUMBER        0.000    0.020    1.050

 PERFORMANCE PARAMETERS

 Ae/At                      29.754  1.00000
 CSTAR, M/SEC                465.5    465.5
 CF                         0.0156   0.7230
 Ivac, M/SEC               13854.0    589.0
 Isp, M/SEC                    7.3    336.6


 MOLE FRACTIONS

 *CO2             0.03093  0.03093  0.03093
 H2O              0.02474  0.02474  0.02474
 *O2              0.94432  0.94432  0.94432
 H2O(L)           0.00000  0.00000  0.00001

  * THERMODYNAMIC PROPERTIES FITTED TO 20000.K

    PRODUCTS WHICH WERE CONSIDERED BUT WHOSE MOLE FRACTIONS
    WERE LESS THAN 5.000000E-06 FOR ALL ASSIGNED CONDITIONS

 *C              *CH             CH2             CH3             CH2OH          
 CH3O            CH4             CH3OH           CH3OOH          *CO            
 COOH            *C2             C2H             C2H2,acetylene  C2H2,vinylidene
 CH2CO,ketene    O(CH)2O         HO(CO)2OH       C2H3,vinyl      CH3CO,acetyl   
 C2H4            C2H4O,ethylen-o CH3CHO,ethanal  CH3COOH         OHCH2COOH      
 C2H5            C2H6            C2H5OH          CH3OCH3         CH3O2CH3       
 C2O             *C3             C3H3,1-propynl  C3H3,2-propynl  C3H4,allene    
 C3H4,propyne    C3H4,cyclo-     C3H5,allyl      C3H6,propylene  C3H6,cyclo-    
 C3H6O,propylox  C3H6O,acetone   C3H6O,propanal  C3H7,n-propyl   C3H7,i-propyl  
 C3H8            C3H8O,1propanol C3H8O,2propanol C3O2            *C4            
 C4H2,butadiyne  C4H4,1,3-cyclo- C4H6,butadiene  C4H6,1butyne    C4H6,2butyne   
 C4H6,cyclo-     C4H8,1-butene   C4H8,cis2-buten C4H8,tr2-butene C4H8,isobutene 
 C4H8,cyclo-     (CH3COOH)2      C4H9,n-butyl    C4H9,i-butyl    C4H9,s-butyl   
 C4H9,t-butyl    C4H10,n-butane  C4H10,isobutane *C5             C5H6,1,3cyclo- 
 C5H8,cyclo-     C5H10,1-pentene C5H10,cyclo-    C5H11,pentyl    C5H11,t-pentyl 
 C5H12,n-pentane C5H12,i-pentane CH3C(CH3)2CH3   C6H2            C6H5,phenyl    
 C6H5O,phenoxy   C6H6            C6H5OH,phenol   C6H10,cyclo-    C6H12,1-hexene 
 C6H12,cyclo-    C6H13,n-hexyl   C6H14,n-hexane  C7H7,benzyl     C7H8           
 C7H8O,cresol-mx C7H14,1-heptene C7H15,n-heptyl  C7H16,n-heptane C7H16,2-methylh
 C8H8,styrene    C8H10,ethylbenz C8H16,1-octene  C8H17,n-octyl   C8H18,n-octane 
 C8H18,isooctane C9H19,n-nonyl   C10H8,naphthale C10H21,n-decyl  C12H9,o-bipheny
 C12H10,biphenyl *H              HCO             HCCO            HO2            
 *H2             HCHO,formaldehy HCOOH           H2O2            (HCOOH)2       
 *O              *OH             O3              C(gr)           H2O(cr)        

 NOTE. WEIGHT FRACTION OF FUEL IN TOTAL FUELS AND OF OXIDANT IN TOTAL OXIDANTS






 WARNING!!  ASSIGNED pip =   0.00000 IS NOT PERMITTED
 TO BE LESS THAN  Pinj/Pc =  1.00052. POINT OMITTED (ROCKET)





              THEORETICAL ROCKET PERFORMANCE ASSUMING EQUILIBRIUM

            COMPOSITION DURING EXPANSION FROM FINITE AREA COMBUSTOR

 Pin =   162.9 PSIA
 Ac/At = 29.7521      Pinj/Pinf =  1.000262
 CASE =                

             REACTANT                    WT FRACTION      ENERGY      TEMP
                                          (SEE NOTE)     KJ/KG-MOL      K  
 OXIDANT     O2(L)                        1.0000000    -12979.000     90.170
 FUEL        PMMA                         1.0000000   -442140.000    293.150

 O/F=   50.70722  %FUEL=  1.933966  R,EQ.RATIO= 0.043846  PHI,EQ.RATIO= 0.037819

                 INJECTOR  COMB END  THROAT
 Pinj/P            1.0000   1.0005   1.8441
 P, BAR            11.230   11.224   6.0896
 T, K              387.39   387.37   327.29
 RHO, KG/CU M    1.1165 1 1.1160 1 7.1664 0
 H, KJ/KG         -483.17  -483.20  -539.81
 U, KJ/KG         -583.75  -583.77  -624.78
 G, KJ/KG        -2840.54 -2840.42 -2531.47
 S, KJ/(KG)(K)     6.0852   6.0853   6.0853

 M, (1/n)          32.024   32.024   32.025
 MW, MOL WT        32.024   32.024   32.024
 (dLV/dLP)t      -1.00000 -1.00000 -1.02537
 (dLV/dLT)p        1.0000   1.0000   1.3988
 Cp, KJ/(KG)(K)    0.9506   0.9506   2.5627
 GAMMAs            1.3758   1.3758   1.2090
 SON VEL,M/SEC      372.0    372.0    320.5
 MACH NUMBER        0.000    0.020    1.050

 PERFORMANCE PARAMETERS

 Ae/At                      29.754  1.00000
 CSTAR, M/SEC                465.5    465.5
 CF                         0.0156   0.7230
 Ivac, M/SEC               13854.0    589.0
 Isp, M/SEC                    7.3    336.6


 MOLE FRACTIONS

 *CO2             0.03093  0.03093  0.03093
 H2O              0.02474  0.02474  0.02474
 *O2              0.94432  0.94432  0.94432
 H2O(L)           0.00000  0.00000  0.00001

  * THERMODYNAMIC PROPERTIES FITTED TO 20000.K

    PRODUCTS WHICH WERE CONSIDERED BUT WHOSE MOLE FRACTIONS
    WERE LESS THAN 5.000000E-06 FOR ALL ASSIGNED CONDITIONS

 *C              *CH             CH2             CH3             CH2OH          
 CH3O            CH4             CH3OH           CH3OOH          *CO            
 COOH            *C2             C2H             C2H2,acetylene  C2H2,vinylidene
 CH2CO,ketene    O(CH)2O         HO(CO)2OH       C2H3,vinyl      CH3CO,acetyl   
 C2H4            C2H4O,ethylen-o CH3CHO,ethanal  CH3COOH         OHCH2COOH      
 C2H5            C2H6            C2H5OH          CH3OCH3         CH3O2CH3       
 C2O             *C3             C3H3,1-propynl  C3H3,2-propynl  C3H4,allene    
 C3H4,propyne    C3H4,cyclo-     C3H5,allyl      C3H6,propylene  C3H6,cyclo-    
 C3H6O,propylox  C3H6O,acetone   C3H6O,propanal  C3H7,n-propyl   C3H7,i-propyl  
 C3H8            C3H8O,1propanol C3H8O,2propanol C3O2            *C4            
 C4H2,butadiyne  C4H4,1,3-cyclo- C4H6,butadiene  C4H6,1butyne    C4H6,2butyne   
 C4H6,cyclo-     C4H8,1-butene   C4H8,cis2-buten C4H8,tr2-butene C4H8,isobutene 
 C4H8,cyclo-     (CH3COOH)2      C4H9,n-butyl    C4H9,i-butyl    C4H9,s-butyl   
 C4H9,t-butyl    C4H10,n-butane  C4H10,isobutane *C5             C5H6,1,3cyclo- 
 C5H8,cyclo-     C5H10,1-pentene C5H10,cyclo-    C5H11,pentyl    C5H11,t-pentyl 
 C5H12,n-pentane C5H12,i-pentane CH3C(CH3)2CH3   C6H2            C6H5,phenyl    
 C6H5O,phenoxy   C6H6            C6H5OH,phenol   C6H10,cyclo-    C6H12,1-hexene 
 C6H12,cyclo-    C6H13,n-hexyl   C6H14,n-hexane  C7H7,benzyl     C7H8           
 C7H8O,cresol-mx C7H14,1-heptene C7H15,n-heptyl  C7H16,n-heptane C7H16,2-methylh
 C8H8,styrene    C8H10,ethylbenz C8H16,1-octene  C8H17,n-octyl   C8H18,n-octane 
 C8H18,isooctane C9H19,n-nonyl   C10H8,naphthale C10H21,n-decyl  C12H9,o-bipheny
 C12H10,biphenyl *H              HCO             HCCO            HO2            
 *H2             HCHO,formaldehy HCOOH           H2O2            (HCOOH)2       
 *O              *OH             O3              C(gr)           H2O(cr)        

 NOTE. WEIGHT FRACTION OF FUEL IN TOTAL FUELS AND OF OXIDANT IN TOTAL OXIDANTS






 WARNING!!  ASSIGNED pip =   0.00000 IS NOT PERMITTED
 TO BE LESS THAN  Pinj/Pc =  1.00052. POINT OMITTED (ROCKET)





              THEORETICAL ROCKET PERFORMANCE ASSUMING EQUILIBRIUM

            COMPOSITION DURING EXPANSION FROM FINITE AREA COMBUSTOR

 Pin =   162.9 PSIA
 Ac/At = 29.7521      Pinj/Pinf =  1.000262
 CASE =                

             REACTANT                    WT FRACTION      ENERGY      TEMP
                                          (SEE NOTE)     KJ/KG-MOL      K  
 OXIDANT     O2(L)                        1.0000000    -12979.000     90.170
 FUEL        PMMA                         1.0000000   -442140.000    293.150

 O/F=   50.70722  %FUEL=  1.933966  R,EQ.RATIO= 0.043846  PHI,EQ.RATIO= 0.037819

                 INJECTOR  COMB END  THROAT
 Pinj/P            1.0000   1.0005   1.8441
 P, BAR            11.230   11.224   6.0896
 T, K              387.39   387.37   327.29
 RHO, KG/CU M    1.1165 1 1.1160 1 7.1664 0
 H, KJ/KG         -483.17  -483.20  -539.81
 U, KJ/KG         -583.75  -583.77  -624.78
 G, KJ/KG        -2840.54 -2840.42 -2531.47
 S, KJ/(KG)(K)     6.0852   6.0853   6.0853

 M, (1/n)          32.024   32.024   32.025
 MW, MOL WT        32.024   32.024   32.024
 (dLV/dLP)t      -1.00000 -1.00000 -1.02537
 (dLV/dLT)p        1.0000   1.0000   1.3988
 Cp, KJ/(KG)(K)    0.9506   0.9506   2.5627
 GAMMAs            1.3758   1.3758   1.2090
 SON VEL,M/SEC      372.0    372.0    320.5
 MACH NUMBER        0.000    0.020    1.050

 PERFORMANCE PARAMETERS

 Ae/At                      29.754  1.00000
 CSTAR, M/SEC                465.5    465.5
 CF                         0.0156   0.7230
 Ivac, M/SEC               13854.0    589.0
 Isp, M/SEC                    7.3    336.6


 MOLE FRACTIONS

 *CO2             0.03093  0.03093  0.03093
 H2O              0.02474  0.02474  0.02474
 *O2              0.94432  0.94432  0.94432
 H2O(L)           0.00000  0.00000  0.00001

  * THERMODYNAMIC PROPERTIES FITTED TO 20000.K

    PRODUCTS WHICH WERE CONSIDERED BUT WHOSE MOLE FRACTIONS
    WERE LESS THAN 5.000000E-06 FOR ALL ASSIGNED CONDITIONS

 *C              *CH             CH2             CH3             CH2OH          
 CH3O            CH4             CH3OH           CH3OOH          *CO            
 COOH            *C2             C2H             C2H2,acetylene  C2H2,vinylidene
 CH2CO,ketene    O(CH)2O         HO(CO)2OH       C2H3,vinyl      CH3CO,acetyl   
 C2H4            C2H4O,ethylen-o CH3CHO,ethanal  CH3COOH         OHCH2COOH      
 C2H5            C2H6            C2H5OH          CH3OCH3         CH3O2CH3       
 C2O             *C3             C3H3,1-propynl  C3H3,2-propynl  C3H4,allene    
 C3H4,propyne    C3H4,cyclo-     C3H5,allyl      C3H6,propylene  C3H6,cyclo-    
 C3H6O,propylox  C3H6O,acetone   C3H6O,propanal  C3H7,n-propyl   C3H7,i-propyl  
 C3H8            C3H8O,1propanol C3H8O,2propanol C3O2            *C4            
 C4H2,butadiyne  C4H4,1,3-cyclo- C4H6,butadiene  C4H6,1butyne    C4H6,2butyne   
 C4H6,cyclo-     C4H8,1-butene   C4H8,cis2-buten C4H8,tr2-butene C4H8,isobutene 
 C4H8,cyclo-     (CH3COOH)2      C4H9,n-butyl    C4H9,i-butyl    C4H9,s-butyl   
 C4H9,t-butyl    C4H10,n-butane  C4H10,isobutane *C5             C5H6,1,3cyclo- 
 C5H8,cyclo-     C5H10,1-pentene C5H10,cyclo-    C5H11,pentyl    C5H11,t-pentyl 
 C5H12,n-pentane C5H12,i-pentane CH3C(CH3)2CH3   C6H2            C6H5,phenyl    
 C6H5O,phenoxy   C6H6            C6H5OH,phenol   C6H10,cyclo-    C6H12,1-hexene 
 C6H12,cyclo-    C6H13,n-hexyl   C6H14,n-hexane  C7H7,benzyl     C7H8           
 C7H8O,cresol-mx C7H14,1-heptene C7H15,n-heptyl  C7H16,n-heptane C7H16,2-methylh
 C8H8,styrene    C8H10,ethylbenz C8H16,1-octene  C8H17,n-octyl   C8H18,n-octane 
 C8H18,isooctane C9H19,n-nonyl   C10H8,naphthale C10H21,n-decyl  C12H9,o-bipheny
 C12H10,biphenyl *H              HCO             HCCO            HO2            
 *H2             HCHO,formaldehy HCOOH           H2O2            (HCOOH)2       
 *O              *OH             O3              C(gr)           H2O(cr)        

 NOTE. WEIGHT FRACTION OF FUEL IN TOTAL FUELS AND OF OXIDANT IN TOTAL OXIDANTS






 WARNING!!  ASSIGNED pip =   0.00000 IS NOT PERMITTED
 TO BE LESS THAN  Pinj/Pc =  1.00052. POINT OMITTED (ROCKET)





              THEORETICAL ROCKET PERFORMANCE ASSUMING EQUILIBRIUM

            COMPOSITION DURING EXPANSION FROM FINITE AREA COMBUSTOR

 Pin =   162.9 PSIA
 Ac/At = 29.7521      Pinj/Pinf =  1.000262
 CASE =                

             REACTANT                    WT FRACTION      ENERGY      TEMP
                                          (SEE NOTE)     KJ/KG-MOL      K  
 OXIDANT     O2(L)                        1.0000000    -12979.000     90.170
 FUEL        PMMA                         1.0000000   -442140.000    293.150

 O/F=   50.70722  %FUEL=  1.933966  R,EQ.RATIO= 0.043846  PHI,EQ.RATIO= 0.037819

                 INJECTOR  COMB END  THROAT
 Pinj/P            1.0000   1.0005   1.8441
 P, BAR            11.230   11.224   6.0896
 T, K              387.39   387.37   327.29
 RHO, KG/CU M    1.1165 1 1.1160 1 7.1664 0
 H, KJ/KG         -483.17  -483.20  -539.81
 U, KJ/KG         -583.75  -583.77  -624.78
 G, KJ/KG        -2840.54 -2840.42 -2531.47
 S, KJ/(KG)(K)     6.0852   6.0853   6.0853

 M, (1/n)          32.024   32.024   32.025
 MW, MOL WT        32.024   32.024   32.024
 (dLV/dLP)t      -1.00000 -1.00000 -1.02537
 (dLV/dLT)p        1.0000   1.0000   1.3988
 Cp, KJ/(KG)(K)    0.9506   0.9506   2.5627
 GAMMAs            1.3758   1.3758   1.2090
 SON VEL,M/SEC      372.0    372.0    320.5
 MACH NUMBER        0.000    0.020    1.050

 PERFORMANCE PARAMETERS

 Ae/At                      29.754  1.00000
 CSTAR, M/SEC                465.5    465.5
 CF                         0.0156   0.7230
 Ivac, M/SEC               13854.0    589.0
 Isp, M/SEC                    7.3    336.6


 MOLE FRACTIONS

 *CO2             0.03093  0.03093  0.03093
 H2O              0.02474  0.02474  0.02474
 *O2              0.94432  0.94432  0.94432
 H2O(L)           0.00000  0.00000  0.00001

  * THERMODYNAMIC PROPERTIES FITTED TO 20000.K

    PRODUCTS WHICH WERE CONSIDERED BUT WHOSE MOLE FRACTIONS
    WERE LESS THAN 5.000000E-06 FOR ALL ASSIGNED CONDITIONS

 *C              *CH             CH2             CH3             CH2OH          
 CH3O            CH4             CH3OH           CH3OOH          *CO            
 COOH            *C2             C2H             C2H2,acetylene  C2H2,vinylidene
 CH2CO,ketene    O(CH)2O         HO(CO)2OH       C2H3,vinyl      CH3CO,acetyl   
 C2H4            C2H4O,ethylen-o CH3CHO,ethanal  CH3COOH         OHCH2COOH      
 C2H5            C2H6            C2H5OH          CH3OCH3         CH3O2CH3       
 C2O             *C3             C3H3,1-propynl  C3H3,2-propynl  C3H4,allene    
 C3H4,propyne    C3H4,cyclo-     C3H5,allyl      C3H6,propylene  C3H6,cyclo-    
 C3H6O,propylox  C3H6O,acetone   C3H6O,propanal  C3H7,n-propyl   C3H7,i-propyl  
 C3H8            C3H8O,1propanol C3H8O,2propanol C3O2            *C4            
 C4H2,butadiyne  C4H4,1,3-cyclo- C4H6,butadiene  C4H6,1butyne    C4H6,2butyne   
 C4H6,cyclo-     C4H8,1-butene   C4H8,cis2-buten C4H8,tr2-butene C4H8,isobutene 
 C4H8,cyclo-     (CH3COOH)2      C4H9,n-butyl    C4H9,i-butyl    C4H9,s-butyl   
 C4H9,t-butyl    C4H10,n-butane  C4H10,isobutane *C5             C5H6,1,3cyclo- 
 C5H8,cyclo-     C5H10,1-pentene C5H10,cyclo-    C5H11,pentyl    C5H11,t-pentyl 
 C5H12,n-pentane C5H12,i-pentane CH3C(CH3)2CH3   C6H2            C6H5,phenyl    
 C6H5O,phenoxy   C6H6            C6H5OH,phenol   C6H10,cyclo-    C6H12,1-hexene 
 C6H12,cyclo-    C6H13,n-hexyl   C6H14,n-hexane  C7H7,benzyl     C7H8           
 C7H8O,cresol-mx C7H14,1-heptene C7H15,n-heptyl  C7H16,n-heptane C7H16,2-methylh
 C8H8,styrene    C8H10,ethylbenz C8H16,1-octene  C8H17,n-octyl   C8H18,n-octane 
 C8H18,isooctane C9H19,n-nonyl   C10H8,naphthale C10H21,n-decyl  C12H9,o-bipheny
 C12H10,biphenyl *H              HCO             HCCO            HO2            
 *H2             HCHO,formaldehy HCOOH           H2O2            (HCOOH)2       
 *O              *OH             O3              C(gr)           H2O(cr)        

 NOTE. WEIGHT FRACTION OF FUEL IN TOTAL FUELS AND OF OXIDANT IN TOTAL OXIDANTS






 WARNING!!  ASSIGNED pip =   0.00000 IS NOT PERMITTED
 TO BE LESS THAN  Pinj/Pc =  1.00052. POINT OMITTED (ROCKET)





              THEORETICAL ROCKET PERFORMANCE ASSUMING EQUILIBRIUM

            COMPOSITION DURING EXPANSION FROM FINITE AREA COMBUSTOR

 Pin =   162.9 PSIA
 Ac/At = 29.7521      Pinj/Pinf =  1.000262
 CASE =                

             REACTANT                    WT FRACTION      ENERGY      TEMP
                                          (SEE NOTE)     KJ/KG-MOL      K  
 OXIDANT     O2(L)                        1.0000000    -12979.000     90.170
 FUEL        PMMA                         1.0000000   -442140.000    293.150

 O/F=   50.70722  %FUEL=  1.933966  R,EQ.RATIO= 0.043846  PHI,EQ.RATIO= 0.037819

                 INJECTOR  COMB END  THROAT
 Pinj/P            1.0000   1.0005   1.8441
 P, BAR            11.230   11.224   6.0896
 T, K              387.39   387.37   327.29
 RHO, KG/CU M    1.1165 1 1.1160 1 7.1664 0
 H, KJ/KG         -483.17  -483.20  -539.81
 U, KJ/KG         -583.75  -583.77  -624.78
 G, KJ/KG        -2840.54 -2840.42 -2531.47
 S, KJ/(KG)(K)     6.0852   6.0853   6.0853

 M, (1/n)          32.024   32.024   32.025
 MW, MOL WT        32.024   32.024   32.024
 (dLV/dLP)t      -1.00000 -1.00000 -1.02537
 (dLV/dLT)p        1.0000   1.0000   1.3988
 Cp, KJ/(KG)(K)    0.9506   0.9506   2.5627
 GAMMAs            1.3758   1.3758   1.2090
 SON VEL,M/SEC      372.0    372.0    320.5
 MACH NUMBER        0.000    0.020    1.050

 PERFORMANCE PARAMETERS

 Ae/At                      29.754  1.00000
 CSTAR, M/SEC                465.5    465.5
 CF                         0.0156   0.7230
 Ivac, M/SEC               13854.0    589.0
 Isp, M/SEC                    7.3    336.6


 MOLE FRACTIONS

 *CO2             0.03093  0.03093  0.03093
 H2O              0.02474  0.02474  0.02474
 *O2              0.94432  0.94432  0.94432
 H2O(L)           0.00000  0.00000  0.00001

  * THERMODYNAMIC PROPERTIES FITTED TO 20000.K

    PRODUCTS WHICH WERE CONSIDERED BUT WHOSE MOLE FRACTIONS
    WERE LESS THAN 5.000000E-06 FOR ALL ASSIGNED CONDITIONS

 *C              *CH             CH2             CH3             CH2OH          
 CH3O            CH4             CH3OH           CH3OOH          *CO            
 COOH            *C2             C2H             C2H2,acetylene  C2H2,vinylidene
 CH2CO,ketene    O(CH)2O         HO(CO)2OH       C2H3,vinyl      CH3CO,acetyl   
 C2H4            C2H4O,ethylen-o CH3CHO,ethanal  CH3COOH         OHCH2COOH      
 C2H5            C2H6            C2H5OH          CH3OCH3         CH3O2CH3       
 C2O             *C3             C3H3,1-propynl  C3H3,2-propynl  C3H4,allene    
 C3H4,propyne    C3H4,cyclo-     C3H5,allyl      C3H6,propylene  C3H6,cyclo-    
 C3H6O,propylox  C3H6O,acetone   C3H6O,propanal  C3H7,n-propyl   C3H7,i-propyl  
 C3H8            C3H8O,1propanol C3H8O,2propanol C3O2            *C4            
 C4H2,butadiyne  C4H4,1,3-cyclo- C4H6,butadiene  C4H6,1butyne    C4H6,2butyne   
 C4H6,cyclo-     C4H8,1-butene   C4H8,cis2-buten C4H8,tr2-butene C4H8,isobutene 
 C4H8,cyclo-     (CH3COOH)2      C4H9,n-butyl    C4H9,i-butyl    C4H9,s-butyl   
 C4H9,t-butyl    C4H10,n-butane  C4H10,isobutane *C5             C5H6,1,3cyclo- 
 C5H8,cyclo-     C5H10,1-pentene C5H10,cyclo-    C5H11,pentyl    C5H11,t-pentyl 
 C5H12,n-pentane C5H12,i-pentane CH3C(CH3)2CH3   C6H2            C6H5,phenyl    
 C6H5O,phenoxy   C6H6            C6H5OH,phenol   C6H10,cyclo-    C6H12,1-hexene 
 C6H12,cyclo-    C6H13,n-hexyl   C6H14,n-hexane  C7H7,benzyl     C7H8           
 C7H8O,cresol-mx C7H14,1-heptene C7H15,n-heptyl  C7H16,n-heptane C7H16,2-methylh
 C8H8,styrene    C8H10,ethylbenz C8H16,1-octene  C8H17,n-octyl   C8H18,n-octane 
 C8H18,isooctane C9H19,n-nonyl   C10H8,naphthale C10H21,n-decyl  C12H9,o-bipheny
 C12H10,biphenyl *H              HCO             HCCO            HO2            
 *H2             HCHO,formaldehy HCOOH           H2O2            (HCOOH)2       
 *O              *OH             O3              C(gr)           H2O(cr)        

 NOTE. WEIGHT FRACTION OF FUEL IN TOTAL FUELS AND OF OXIDANT IN TOTAL OXIDANTS






 WARNING!!  ASSIGNED pip =   0.00000 IS NOT PERMITTED
 TO BE LESS THAN  Pinj/Pc =  1.00052. POINT OMITTED (ROCKET)





              THEORETICAL ROCKET PERFORMANCE ASSUMING EQUILIBRIUM

            COMPOSITION DURING EXPANSION FROM FINITE AREA COMBUSTOR

 Pin =   162.9 PSIA
 Ac/At = 29.7521      Pinj/Pinf =  1.000262
 CASE =                

             REACTANT                    WT FRACTION      ENERGY      TEMP
                                          (SEE NOTE)     KJ/KG-MOL      K  
 OXIDANT     O2(L)                        1.0000000    -12979.000     90.170
 FUEL        PMMA                         1.0000000   -442140.000    293.150

 O/F=   50.70722  %FUEL=  1.933966  R,EQ.RATIO= 0.043846  PHI,EQ.RATIO= 0.037819

                 INJECTOR  COMB END  THROAT
 Pinj/P            1.0000   1.0005   1.8441
 P, BAR            11.230   11.224   6.0896
 T, K              387.39   387.37   327.29
 RHO, KG/CU M    1.1165 1 1.1160 1 7.1664 0
 H, KJ/KG         -483.17  -483.20  -539.81
 U, KJ/KG         -583.75  -583.77  -624.78
 G, KJ/KG        -2840.54 -2840.42 -2531.47
 S, KJ/(KG)(K)     6.0852   6.0853   6.0853

 M, (1/n)          32.024   32.024   32.025
 MW, MOL WT        32.024   32.024   32.024
 (dLV/dLP)t      -1.00000 -1.00000 -1.02537
 (dLV/dLT)p        1.0000   1.0000   1.3988
 Cp, KJ/(KG)(K)    0.9506   0.9506   2.5627
 GAMMAs            1.3758   1.3758   1.2090
 SON VEL,M/SEC      372.0    372.0    320.5
 MACH NUMBER        0.000    0.020    1.050

 PERFORMANCE PARAMETERS

 Ae/At                      29.754  1.00000
 CSTAR, M/SEC                465.5    465.5
 CF                         0.0156   0.7230
 Ivac, M/SEC               13854.0    589.0
 Isp, M/SEC                    7.3    336.6


 MOLE FRACTIONS

 *CO2             0.03093  0.03093  0.03093
 H2O              0.02474  0.02474  0.02474
 *O2              0.94432  0.94432  0.94432
 H2O(L)           0.00000  0.00000  0.00001

  * THERMODYNAMIC PROPERTIES FITTED TO 20000.K

    PRODUCTS WHICH WERE CONSIDERED BUT WHOSE MOLE FRACTIONS
    WERE LESS THAN 5.000000E-06 FOR ALL ASSIGNED CONDITIONS

 *C              *CH             CH2             CH3             CH2OH          
 CH3O            CH4             CH3OH           CH3OOH          *CO            
 COOH            *C2             C2H             C2H2,acetylene  C2H2,vinylidene
 CH2CO,ketene    O(CH)2O         HO(CO)2OH       C2H3,vinyl      CH3CO,acetyl   
 C2H4            C2H4O,ethylen-o CH3CHO,ethanal  CH3COOH         OHCH2COOH      
 C2H5            C2H6            C2H5OH          CH3OCH3         CH3O2CH3       
 C2O             *C3             C3H3,1-propynl  C3H3,2-propynl  C3H4,allene    
 C3H4,propyne    C3H4,cyclo-     C3H5,allyl      C3H6,propylene  C3H6,cyclo-    
 C3H6O,propylox  C3H6O,acetone   C3H6O,propanal  C3H7,n-propyl   C3H7,i-propyl  
 C3H8            C3H8O,1propanol C3H8O,2propanol C3O2            *C4            
 C4H2,butadiyne  C4H4,1,3-cyclo- C4H6,butadiene  C4H6,1butyne    C4H6,2butyne   
 C4H6,cyclo-     C4H8,1-butene   C4H8,cis2-buten C4H8,tr2-butene C4H8,isobutene 
 C4H8,cyclo-     (CH3COOH)2      C4H9,n-butyl    C4H9,i-butyl    C4H9,s-butyl   
 C4H9,t-butyl    C4H10,n-butane  C4H10,isobutane *C5             C5H6,1,3cyclo- 
 C5H8,cyclo-     C5H10,1-pentene C5H10,cyclo-    C5H11,pentyl    C5H11,t-pentyl 
 C5H12,n-pentane C5H12,i-pentane CH3C(CH3)2CH3   C6H2            C6H5,phenyl    
 C6H5O,phenoxy   C6H6            C6H5OH,phenol   C6H10,cyclo-    C6H12,1-hexene 
 C6H12,cyclo-    C6H13,n-hexyl   C6H14,n-hexane  C7H7,benzyl     C7H8           
 C7H8O,cresol-mx C7H14,1-heptene C7H15,n-heptyl  C7H16,n-heptane C7H16,2-methylh
 C8H8,styrene    C8H10,ethylbenz C8H16,1-octene  C8H17,n-octyl   C8H18,n-octane 
 C8H18,isooctane C9H19,n-nonyl   C10H8,naphthale C10H21,n-decyl  C12H9,o-bipheny
 C12H10,biphenyl *H              HCO             HCCO            HO2            
 *H2             HCHO,formaldehy HCOOH           H2O2            (HCOOH)2       
 *O              *OH             O3              C(gr)           H2O(cr)        

 NOTE. WEIGHT FRACTION OF FUEL IN TOTAL FUELS AND OF OXIDANT IN TOTAL OXIDANTS






 WARNING!!  ASSIGNED pip =   0.00000 IS NOT PERMITTED
 TO BE LESS THAN  Pinj/Pc =  1.00052. POINT OMITTED (ROCKET)





              THEORETICAL ROCKET PERFORMANCE ASSUMING EQUILIBRIUM

            COMPOSITION DURING EXPANSION FROM FINITE AREA COMBUSTOR

 Pin =   162.9 PSIA
 Ac/At = 29.7521      Pinj/Pinf =  1.000262
 CASE =                

             REACTANT                    WT FRACTION      ENERGY      TEMP
                                          (SEE NOTE)     KJ/KG-MOL      K  
 OXIDANT     O2(L)                        1.0000000    -12979.000     90.170
 FUEL        PMMA                         1.0000000   -442140.000    293.150

 O/F=   50.70722  %FUEL=  1.933966  R,EQ.RATIO= 0.043846  PHI,EQ.RATIO= 0.037819

                 INJECTOR  COMB END  THROAT
 Pinj/P            1.0000   1.0005   1.8441
 P, BAR            11.230   11.224   6.0896
 T, K              387.39   387.37   327.29
 RHO, KG/CU M    1.1165 1 1.1160 1 7.1664 0
 H, KJ/KG         -483.17  -483.20  -539.81
 U, KJ/KG         -583.75  -583.77  -624.78
 G, KJ/KG        -2840.54 -2840.42 -2531.47
 S, KJ/(KG)(K)     6.0852   6.0853   6.0853

 M, (1/n)          32.024   32.024   32.025
 MW, MOL WT        32.024   32.024   32.024
 (dLV/dLP)t      -1.00000 -1.00000 -1.02537
 (dLV/dLT)p        1.0000   1.0000   1.3988
 Cp, KJ/(KG)(K)    0.9506   0.9506   2.5627
 GAMMAs            1.3758   1.3758   1.2090
 SON VEL,M/SEC      372.0    372.0    320.5
 MACH NUMBER        0.000    0.020    1.050

 PERFORMANCE PARAMETERS

 Ae/At                      29.754  1.00000
 CSTAR, M/SEC                465.5    465.5
 CF                         0.0156   0.7230
 Ivac, M/SEC               13854.0    589.0
 Isp, M/SEC                    7.3    336.6


 MOLE FRACTIONS

 *CO2             0.03093  0.03093  0.03093
 H2O              0.02474  0.02474  0.02474
 *O2              0.94432  0.94432  0.94432
 H2O(L)           0.00000  0.00000  0.00001

  * THERMODYNAMIC PROPERTIES FITTED TO 20000.K

    PRODUCTS WHICH WERE CONSIDERED BUT WHOSE MOLE FRACTIONS
    WERE LESS THAN 5.000000E-06 FOR ALL ASSIGNED CONDITIONS

 *C              *CH             CH2             CH3             CH2OH          
 CH3O            CH4             CH3OH           CH3OOH          *CO            
 COOH            *C2             C2H             C2H2,acetylene  C2H2,vinylidene
 CH2CO,ketene    O(CH)2O         HO(CO)2OH       C2H3,vinyl      CH3CO,acetyl   
 C2H4            C2H4O,ethylen-o CH3CHO,ethanal  CH3COOH         OHCH2COOH      
 C2H5            C2H6            C2H5OH          CH3OCH3         CH3O2CH3       
 C2O             *C3             C3H3,1-propynl  C3H3,2-propynl  C3H4,allene    
 C3H4,propyne    C3H4,cyclo-     C3H5,allyl      C3H6,propylene  C3H6,cyclo-    
 C3H6O,propylox  C3H6O,acetone   C3H6O,propanal  C3H7,n-propyl   C3H7,i-propyl  
 C3H8            C3H8O,1propanol C3H8O,2propanol C3O2            *C4            
 C4H2,butadiyne  C4H4,1,3-cyclo- C4H6,butadiene  C4H6,1butyne    C4H6,2butyne   
 C4H6,cyclo-     C4H8,1-butene   C4H8,cis2-buten C4H8,tr2-butene C4H8,isobutene 
 C4H8,cyclo-     (CH3COOH)2      C4H9,n-butyl    C4H9,i-butyl    C4H9,s-butyl   
 C4H9,t-butyl    C4H10,n-butane  C4H10,isobutane *C5             C5H6,1,3cyclo- 
 C5H8,cyclo-     C5H10,1-pentene C5H10,cyclo-    C5H11,pentyl    C5H11,t-pentyl 
 C5H12,n-pentane C5H12,i-pentane CH3C(CH3)2CH3   C6H2            C6H5,phenyl    
 C6H5O,phenoxy   C6H6            C6H5OH,phenol   C6H10,cyclo-    C6H12,1-hexene 
 C6H12,cyclo-    C6H13,n-hexyl   C6H14,n-hexane  C7H7,benzyl     C7H8           
 C7H8O,cresol-mx C7H14,1-heptene C7H15,n-heptyl  C7H16,n-heptane C7H16,2-methylh
 C8H8,styrene    C8H10,ethylbenz C8H16,1-octene  C8H17,n-octyl   C8H18,n-octane 
 C8H18,isooctane C9H19,n-nonyl   C10H8,naphthale C10H21,n-decyl  C12H9,o-bipheny
 C12H10,biphenyl *H              HCO             HCCO            HO2            
 *H2             HCHO,formaldehy HCOOH           H2O2            (HCOOH)2       
 *O              *OH             O3              C(gr)           H2O(cr)        

 NOTE. WEIGHT FRACTION OF FUEL IN TOTAL FUELS AND OF OXIDANT IN TOTAL OXIDANTS






 WARNING!!  ASSIGNED pip =   0.00000 IS NOT PERMITTED
 TO BE LESS THAN  Pinj/Pc =  1.00052. POINT OMITTED (ROCKET)





              THEORETICAL ROCKET PERFORMANCE ASSUMING EQUILIBRIUM

            COMPOSITION DURING EXPANSION FROM FINITE AREA COMBUSTOR

 Pin =   162.9 PSIA
 Ac/At = 29.7521      Pinj/Pinf =  1.000262
 CASE =                

             REACTANT                    WT FRACTION      ENERGY      TEMP
                                          (SEE NOTE)     KJ/KG-MOL      K  
 OXIDANT     O2(L)                        1.0000000    -12979.000     90.170
 FUEL        PMMA                         1.0000000   -442140.000    293.150

 O/F=   50.70722  %FUEL=  1.933966  R,EQ.RATIO= 0.043846  PHI,EQ.RATIO= 0.037819

                 INJECTOR  COMB END  THROAT
 Pinj/P            1.0000   1.0005   1.8441
 P, BAR            11.230   11.224   6.0896
 T, K              387.39   387.37   327.29
 RHO, KG/CU M    1.1165 1 1.1160 1 7.1664 0
 H, KJ/KG         -483.17  -483.20  -539.81
 U, KJ/KG         -583.75  -583.77  -624.78
 G, KJ/KG        -2840.54 -2840.42 -2531.47
 S, KJ/(KG)(K)     6.0852   6.0853   6.0853

 M, (1/n)          32.024   32.024   32.025
 MW, MOL WT        32.024   32.024   32.024
 (dLV/dLP)t      -1.00000 -1.00000 -1.02537
 (dLV/dLT)p        1.0000   1.0000   1.3988
 Cp, KJ/(KG)(K)    0.9506   0.9506   2.5627
 GAMMAs            1.3758   1.3758   1.2090
 SON VEL,M/SEC      372.0    372.0    320.5
 MACH NUMBER        0.000    0.020    1.050

 PERFORMANCE PARAMETERS

 Ae/At                      29.754  1.00000
 CSTAR, M/SEC                465.5    465.5
 CF                         0.0156   0.7230
 Ivac, M/SEC               13854.0    589.0
 Isp, M/SEC                    7.3    336.6


 MOLE FRACTIONS

 *CO2             0.03093  0.03093  0.03093
 H2O              0.02474  0.02474  0.02474
 *O2              0.94432  0.94432  0.94432
 H2O(L)           0.00000  0.00000  0.00001

  * THERMODYNAMIC PROPERTIES FITTED TO 20000.K

    PRODUCTS WHICH WERE CONSIDERED BUT WHOSE MOLE FRACTIONS
    WERE LESS THAN 5.000000E-06 FOR ALL ASSIGNED CONDITIONS

 *C              *CH             CH2             CH3             CH2OH          
 CH3O            CH4             CH3OH           CH3OOH          *CO            
 COOH            *C2             C2H             C2H2,acetylene  C2H2,vinylidene
 CH2CO,ketene    O(CH)2O         HO(CO)2OH       C2H3,vinyl      CH3CO,acetyl   
 C2H4            C2H4O,ethylen-o CH3CHO,ethanal  CH3COOH         OHCH2COOH      
 C2H5            C2H6            C2H5OH          CH3OCH3         CH3O2CH3       
 C2O             *C3             C3H3,1-propynl  C3H3,2-propynl  C3H4,allene    
 C3H4,propyne    C3H4,cyclo-     C3H5,allyl      C3H6,propylene  C3H6,cyclo-    
 C3H6O,propylox  C3H6O,acetone   C3H6O,propanal  C3H7,n-propyl   C3H7,i-propyl  
 C3H8            C3H8O,1propanol C3H8O,2propanol C3O2            *C4            
 C4H2,butadiyne  C4H4,1,3-cyclo- C4H6,butadiene  C4H6,1butyne    C4H6,2butyne   
 C4H6,cyclo-     C4H8,1-butene   C4H8,cis2-buten C4H8,tr2-butene C4H8,isobutene 
 C4H8,cyclo-     (CH3COOH)2      C4H9,n-butyl    C4H9,i-butyl    C4H9,s-butyl   
 C4H9,t-butyl    C4H10,n-butane  C4H10,isobutane *C5             C5H6,1,3cyclo- 
 C5H8,cyclo-     C5H10,1-pentene C5H10,cyclo-    C5H11,pentyl    C5H11,t-pentyl 
 C5H12,n-pentane C5H12,i-pentane CH3C(CH3)2CH3   C6H2            C6H5,phenyl    
 C6H5O,phenoxy   C6H6            C6H5OH,phenol   C6H10,cyclo-    C6H12,1-hexene 
 C6H12,cyclo-    C6H13,n-hexyl   C6H14,n-hexane  C7H7,benzyl     C7H8           
 C7H8O,cresol-mx C7H14,1-heptene C7H15,n-heptyl  C7H16,n-heptane C7H16,2-methylh
 C8H8,styrene    C8H10,ethylbenz C8H16,1-octene  C8H17,n-octyl   C8H18,n-octane 
 C8H18,isooctane C9H19,n-nonyl   C10H8,naphthale C10H21,n-decyl  C12H9,o-bipheny
 C12H10,biphenyl *H              HCO             HCCO            HO2            
 *H2             HCHO,formaldehy HCOOH           H2O2            (HCOOH)2       
 *O              *OH             O3              C(gr)           H2O(cr)        

 NOTE. WEIGHT FRACTION OF FUEL IN TOTAL FUELS AND OF OXIDANT IN TOTAL OXIDANTS






 WARNING!!  ASSIGNED pip =   0.00000 IS NOT PERMITTED
 TO BE LESS THAN  Pinj/Pc =  1.00052. POINT OMITTED (ROCKET)





              THEORETICAL ROCKET PERFORMANCE ASSUMING EQUILIBRIUM

            COMPOSITION DURING EXPANSION FROM FINITE AREA COMBUSTOR

 Pin =   162.9 PSIA
 Ac/At = 29.7521      Pinj/Pinf =  1.000262
 CASE =                

             REACTANT                    WT FRACTION      ENERGY      TEMP
                                          (SEE NOTE)     KJ/KG-MOL      K  
 OXIDANT     O2(L)                        1.0000000    -12979.000     90.170
 FUEL        PMMA                         1.0000000   -442140.000    293.150

 O/F=   50.70722  %FUEL=  1.933966  R,EQ.RATIO= 0.043846  PHI,EQ.RATIO= 0.037819

                 INJECTOR  COMB END  THROAT
 Pinj/P            1.0000   1.0005   1.8441
 P, BAR            11.230   11.224   6.0896
 T, K              387.39   387.37   327.29
 RHO, KG/CU M    1.1165 1 1.1160 1 7.1664 0
 H, KJ/KG         -483.17  -483.20  -539.81
 U, KJ/KG         -583.75  -583.77  -624.78
 G, KJ/KG        -2840.54 -2840.42 -2531.47
 S, KJ/(KG)(K)     6.0852   6.0853   6.0853

 M, (1/n)          32.024   32.024   32.025
 MW, MOL WT        32.024   32.024   32.024
 (dLV/dLP)t      -1.00000 -1.00000 -1.02537
 (dLV/dLT)p        1.0000   1.0000   1.3988
 Cp, KJ/(KG)(K)    0.9506   0.9506   2.5627
 GAMMAs            1.3758   1.3758   1.2090
 SON VEL,M/SEC      372.0    372.0    320.5
 MACH NUMBER        0.000    0.020    1.050

 PERFORMANCE PARAMETERS

 Ae/At                      29.754  1.00000
 CSTAR, M/SEC                465.5    465.5
 CF                         0.0156   0.7230
 Ivac, M/SEC               13854.0    589.0
 Isp, M/SEC                    7.3    336.6


 MOLE FRACTIONS

 *CO2             0.03093  0.03093  0.03093
 H2O              0.02474  0.02474  0.02474
 *O2              0.94432  0.94432  0.94432
 H2O(L)           0.00000  0.00000  0.00001

  * THERMODYNAMIC PROPERTIES FITTED TO 20000.K

    PRODUCTS WHICH WERE CONSIDERED BUT WHOSE MOLE FRACTIONS
    WERE LESS THAN 5.000000E-06 FOR ALL ASSIGNED CONDITIONS

 *C              *CH             CH2             CH3             CH2OH          
 CH3O            CH4             CH3OH           CH3OOH          *CO            
 COOH            *C2             C2H             C2H2,acetylene  C2H2,vinylidene
 CH2CO,ketene    O(CH)2O         HO(CO)2OH       C2H3,vinyl      CH3CO,acetyl   
 C2H4            C2H4O,ethylen-o CH3CHO,ethanal  CH3COOH         OHCH2COOH      
 C2H5            C2H6            C2H5OH          CH3OCH3         CH3O2CH3       
 C2O             *C3             C3H3,1-propynl  C3H3,2-propynl  C3H4,allene    
 C3H4,propyne    C3H4,cyclo-     C3H5,allyl      C3H6,propylene  C3H6,cyclo-    
 C3H6O,propylox  C3H6O,acetone   C3H6O,propanal  C3H7,n-propyl   C3H7,i-propyl  
 C3H8            C3H8O,1propanol C3H8O,2propanol C3O2            *C4            
 C4H2,butadiyne  C4H4,1,3-cyclo- C4H6,butadiene  C4H6,1butyne    C4H6,2butyne   
 C4H6,cyclo-     C4H8,1-butene   C4H8,cis2-buten C4H8,tr2-butene C4H8,isobutene 
 C4H8,cyclo-     (CH3COOH)2      C4H9,n-butyl    C4H9,i-butyl    C4H9,s-butyl   
 C4H9,t-butyl    C4H10,n-butane  C4H10,isobutane *C5             C5H6,1,3cyclo- 
 C5H8,cyclo-     C5H10,1-pentene C5H10,cyclo-    C5H11,pentyl    C5H11,t-pentyl 
 C5H12,n-pentane C5H12,i-pentane CH3C(CH3)2CH3   C6H2            C6H5,phenyl    
 C6H5O,phenoxy   C6H6            C6H5OH,phenol   C6H10,cyclo-    C6H12,1-hexene 
 C6H12,cyclo-    C6H13,n-hexyl   C6H14,n-hexane  C7H7,benzyl     C7H8           
 C7H8O,cresol-mx C7H14,1-heptene C7H15,n-heptyl  C7H16,n-heptane C7H16,2-methylh
 C8H8,styrene    C8H10,ethylbenz C8H16,1-octene  C8H17,n-octyl   C8H18,n-octane 
 C8H18,isooctane C9H19,n-nonyl   C10H8,naphthale C10H21,n-decyl  C12H9,o-bipheny
 C12H10,biphenyl *H              HCO             HCCO            HO2            
 *H2             HCHO,formaldehy HCOOH           H2O2            (HCOOH)2       
 *O              *OH             O3              C(gr)           H2O(cr)        

 NOTE. WEIGHT FRACTION OF FUEL IN TOTAL FUELS AND OF OXIDANT IN TOTAL OXIDANTS






 WARNING!!  ASSIGNED pip =   0.00000 IS NOT PERMITTED
 TO BE LESS THAN  Pinj/Pc =  1.00052. POINT OMITTED (ROCKET)





              THEORETICAL ROCKET PERFORMANCE ASSUMING EQUILIBRIUM

            COMPOSITION DURING EXPANSION FROM FINITE AREA COMBUSTOR

 Pin =   162.9 PSIA
 Ac/At = 29.7521      Pinj/Pinf =  1.000262
 CASE =                

             REACTANT                    WT FRACTION      ENERGY      TEMP
                                          (SEE NOTE)     KJ/KG-MOL      K  
 OXIDANT     O2(L)                        1.0000000    -12979.000     90.170
 FUEL        PMMA                         1.0000000   -442140.000    293.150

 O/F=   50.70722  %FUEL=  1.933966  R,EQ.RATIO= 0.043846  PHI,EQ.RATIO= 0.037819

                 INJECTOR  COMB END  THROAT
 Pinj/P            1.0000   1.0005   1.8441
 P, BAR            11.230   11.224   6.0896
 T, K              387.39   387.37   327.29
 RHO, KG/CU M    1.1165 1 1.1160 1 7.1664 0
 H, KJ/KG         -483.17  -483.20  -539.81
 U, KJ/KG         -583.75  -583.77  -624.78
 G, KJ/KG        -2840.54 -2840.42 -2531.47
 S, KJ/(KG)(K)     6.0852   6.0853   6.0853

 M, (1/n)          32.024   32.024   32.025
 MW, MOL WT        32.024   32.024   32.024
 (dLV/dLP)t      -1.00000 -1.00000 -1.02537
 (dLV/dLT)p        1.0000   1.0000   1.3988
 Cp, KJ/(KG)(K)    0.9506   0.9506   2.5627
 GAMMAs            1.3758   1.3758   1.2090
 SON VEL,M/SEC      372.0    372.0    320.5
 MACH NUMBER        0.000    0.020    1.050

 PERFORMANCE PARAMETERS

 Ae/At                      29.754  1.00000
 CSTAR, M/SEC                465.5    465.5
 CF                         0.0156   0.7230
 Ivac, M/SEC               13854.0    589.0
 Isp, M/SEC                    7.3    336.6


 MOLE FRACTIONS

 *CO2             0.03093  0.03093  0.03093
 H2O              0.02474  0.02474  0.02474
 *O2              0.94432  0.94432  0.94432
 H2O(L)           0.00000  0.00000  0.00001

  * THERMODYNAMIC PROPERTIES FITTED TO 20000.K

    PRODUCTS WHICH WERE CONSIDERED BUT WHOSE MOLE FRACTIONS
    WERE LESS THAN 5.000000E-06 FOR ALL ASSIGNED CONDITIONS

 *C              *CH             CH2             CH3             CH2OH          
 CH3O            CH4             CH3OH           CH3OOH          *CO            
 COOH            *C2             C2H             C2H2,acetylene  C2H2,vinylidene
 CH2CO,ketene    O(CH)2O         HO(CO)2OH       C2H3,vinyl      CH3CO,acetyl   
 C2H4            C2H4O,ethylen-o CH3CHO,ethanal  CH3COOH         OHCH2COOH      
 C2H5            C2H6            C2H5OH          CH3OCH3         CH3O2CH3       
 C2O             *C3             C3H3,1-propynl  C3H3,2-propynl  C3H4,allene    
 C3H4,propyne    C3H4,cyclo-     C3H5,allyl      C3H6,propylene  C3H6,cyclo-    
 C3H6O,propylox  C3H6O,acetone   C3H6O,propanal  C3H7,n-propyl   C3H7,i-propyl  
 C3H8            C3H8O,1propanol C3H8O,2propanol C3O2            *C4            
 C4H2,butadiyne  C4H4,1,3-cyclo- C4H6,butadiene  C4H6,1butyne    C4H6,2butyne   
 C4H6,cyclo-     C4H8,1-butene   C4H8,cis2-buten C4H8,tr2-butene C4H8,isobutene 
 C4H8,cyclo-     (CH3COOH)2      C4H9,n-butyl    C4H9,i-butyl    C4H9,s-butyl   
 C4H9,t-butyl    C4H10,n-butane  C4H10,isobutane *C5             C5H6,1,3cyclo- 
 C5H8,cyclo-     C5H10,1-pentene C5H10,cyclo-    C5H11,pentyl    C5H11,t-pentyl 
 C5H12,n-pentane C5H12,i-pentane CH3C(CH3)2CH3   C6H2            C6H5,phenyl    
 C6H5O,phenoxy   C6H6            C6H5OH,phenol   C6H10,cyclo-    C6H12,1-hexene 
 C6H12,cyclo-    C6H13,n-hexyl   C6H14,n-hexane  C7H7,benzyl     C7H8           
 C7H8O,cresol-mx C7H14,1-heptene C7H15,n-heptyl  C7H16,n-heptane C7H16,2-methylh
 C8H8,styrene    C8H10,ethylbenz C8H16,1-octene  C8H17,n-octyl   C8H18,n-octane 
 C8H18,isooctane C9H19,n-nonyl   C10H8,naphthale C10H21,n-decyl  C12H9,o-bipheny
 C12H10,biphenyl *H              HCO             HCCO            HO2            
 *H2             HCHO,formaldehy HCOOH           H2O2            (HCOOH)2       
 *O              *OH             O3              C(gr)           H2O(cr)        

 NOTE. WEIGHT FRACTION OF FUEL IN TOTAL FUELS AND OF OXIDANT IN TOTAL OXIDANTS






 WARNING!!  ASSIGNED pip =   0.00000 IS NOT PERMITTED
 TO BE LESS THAN  Pinj/Pc =  1.00052. POINT OMITTED (ROCKET)





              THEORETICAL ROCKET PERFORMANCE ASSUMING EQUILIBRIUM

            COMPOSITION DURING EXPANSION FROM FINITE AREA COMBUSTOR

 Pin =   162.9 PSIA
 Ac/At = 29.7521      Pinj/Pinf =  1.000262
 CASE =                

             REACTANT                    WT FRACTION      ENERGY      TEMP
                                          (SEE NOTE)     KJ/KG-MOL      K  
 OXIDANT     O2(L)                        1.0000000    -12979.000     90.170
 FUEL        PMMA                         1.0000000   -442140.000    293.150

 O/F=   50.70722  %FUEL=  1.933966  R,EQ.RATIO= 0.043846  PHI,EQ.RATIO= 0.037819

                 INJECTOR  COMB END  THROAT
 Pinj/P            1.0000   1.0005   1.8441
 P, BAR            11.230   11.224   6.0896
 T, K              387.39   387.37   327.29
 RHO, KG/CU M    1.1165 1 1.1160 1 7.1664 0
 H, KJ/KG         -483.17  -483.20  -539.81
 U, KJ/KG         -583.75  -583.77  -624.78
 G, KJ/KG        -2840.54 -2840.42 -2531.47
 S, KJ/(KG)(K)     6.0852   6.0853   6.0853

 M, (1/n)          32.024   32.024   32.025
 MW, MOL WT        32.024   32.024   32.024
 (dLV/dLP)t      -1.00000 -1.00000 -1.02537
 (dLV/dLT)p        1.0000   1.0000   1.3988
 Cp, KJ/(KG)(K)    0.9506   0.9506   2.5627
 GAMMAs            1.3758   1.3758   1.2090
 SON VEL,M/SEC      372.0    372.0    320.5
 MACH NUMBER        0.000    0.020    1.050

 PERFORMANCE PARAMETERS

 Ae/At                      29.754  1.00000
 CSTAR, M/SEC                465.5    465.5
 CF                         0.0156   0.7230
 Ivac, M/SEC               13854.0    589.0
 Isp, M/SEC                    7.3    336.6


 MOLE FRACTIONS

 *CO2             0.03093  0.03093  0.03093
 H2O              0.02474  0.02474  0.02474
 *O2              0.94432  0.94432  0.94432
 H2O(L)           0.00000  0.00000  0.00001

  * THERMODYNAMIC PROPERTIES FITTED TO 20000.K

    PRODUCTS WHICH WERE CONSIDERED BUT WHOSE MOLE FRACTIONS
    WERE LESS THAN 5.000000E-06 FOR ALL ASSIGNED CONDITIONS

 *C              *CH             CH2             CH3             CH2OH          
 CH3O            CH4             CH3OH           CH3OOH          *CO            
 COOH            *C2             C2H             C2H2,acetylene  C2H2,vinylidene
 CH2CO,ketene    O(CH)2O         HO(CO)2OH       C2H3,vinyl      CH3CO,acetyl   
 C2H4            C2H4O,ethylen-o CH3CHO,ethanal  CH3COOH         OHCH2COOH      
 C2H5            C2H6            C2H5OH          CH3OCH3         CH3O2CH3       
 C2O             *C3             C3H3,1-propynl  C3H3,2-propynl  C3H4,allene    
 C3H4,propyne    C3H4,cyclo-     C3H5,allyl      C3H6,propylene  C3H6,cyclo-    
 C3H6O,propylox  C3H6O,acetone   C3H6O,propanal  C3H7,n-propyl   C3H7,i-propyl  
 C3H8            C3H8O,1propanol C3H8O,2propanol C3O2            *C4            
 C4H2,butadiyne  C4H4,1,3-cyclo- C4H6,butadiene  C4H6,1butyne    C4H6,2butyne   
 C4H6,cyclo-     C4H8,1-butene   C4H8,cis2-buten C4H8,tr2-butene C4H8,isobutene 
 C4H8,cyclo-     (CH3COOH)2      C4H9,n-butyl    C4H9,i-butyl    C4H9,s-butyl   
 C4H9,t-butyl    C4H10,n-butane  C4H10,isobutane *C5             C5H6,1,3cyclo- 
 C5H8,cyclo-     C5H10,1-pentene C5H10,cyclo-    C5H11,pentyl    C5H11,t-pentyl 
 C5H12,n-pentane C5H12,i-pentane CH3C(CH3)2CH3   C6H2            C6H5,phenyl    
 C6H5O,phenoxy   C6H6            C6H5OH,phenol   C6H10,cyclo-    C6H12,1-hexene 
 C6H12,cyclo-    C6H13,n-hexyl   C6H14,n-hexane  C7H7,benzyl     C7H8           
 C7H8O,cresol-mx C7H14,1-heptene C7H15,n-heptyl  C7H16,n-heptane C7H16,2-methylh
 C8H8,styrene    C8H10,ethylbenz C8H16,1-octene  C8H17,n-octyl   C8H18,n-octane 
 C8H18,isooctane C9H19,n-nonyl   C10H8,naphthale C10H21,n-decyl  C12H9,o-bipheny
 C12H10,biphenyl *H              HCO             HCCO            HO2            
 *H2             HCHO,formaldehy HCOOH           H2O2            (HCOOH)2       
 *O              *OH             O3              C(gr)           H2O(cr)        

 NOTE. WEIGHT FRACTION OF FUEL IN TOTAL FUELS AND OF OXIDANT IN TOTAL OXIDANTS






 WARNING!!  ASSIGNED pip =   0.00000 IS NOT PERMITTED
 TO BE LESS THAN  Pinj/Pc =  1.00052. POINT OMITTED (ROCKET)





              THEORETICAL ROCKET PERFORMANCE ASSUMING EQUILIBRIUM

            COMPOSITION DURING EXPANSION FROM FINITE AREA COMBUSTOR

 Pin =   162.9 PSIA
 Ac/At = 29.7521      Pinj/Pinf =  1.000262
 CASE =                

             REACTANT                    WT FRACTION      ENERGY      TEMP
                                          (SEE NOTE)     KJ/KG-MOL      K  
 OXIDANT     O2(L)                        1.0000000    -12979.000     90.170
 FUEL        PMMA                         1.0000000   -442140.000    293.150

 O/F=   50.70722  %FUEL=  1.933966  R,EQ.RATIO= 0.043846  PHI,EQ.RATIO= 0.037819

                 INJECTOR  COMB END  THROAT
 Pinj/P            1.0000   1.0005   1.8441
 P, BAR            11.230   11.224   6.0896
 T, K              387.39   387.37   327.29
 RHO, KG/CU M    1.1165 1 1.1160 1 7.1664 0
 H, KJ/KG         -483.17  -483.20  -539.81
 U, KJ/KG         -583.75  -583.77  -624.78
 G, KJ/KG        -2840.54 -2840.42 -2531.47
 S, KJ/(KG)(K)     6.0852   6.0853   6.0853

 M, (1/n)          32.024   32.024   32.025
 MW, MOL WT        32.024   32.024   32.024
 (dLV/dLP)t      -1.00000 -1.00000 -1.02537
 (dLV/dLT)p        1.0000   1.0000   1.3988
 Cp, KJ/(KG)(K)    0.9506   0.9506   2.5627
 GAMMAs            1.3758   1.3758   1.2090
 SON VEL,M/SEC      372.0    372.0    320.5
 MACH NUMBER        0.000    0.020    1.050

 PERFORMANCE PARAMETERS

 Ae/At                      29.754  1.00000
 CSTAR, M/SEC                465.5    465.5
 CF                         0.0156   0.7230
 Ivac, M/SEC               13854.0    589.0
 Isp, M/SEC                    7.3    336.6


 MOLE FRACTIONS

 *CO2             0.03093  0.03093  0.03093
 H2O              0.02474  0.02474  0.02474
 *O2              0.94432  0.94432  0.94432
 H2O(L)           0.00000  0.00000  0.00001

  * THERMODYNAMIC PROPERTIES FITTED TO 20000.K

    PRODUCTS WHICH WERE CONSIDERED BUT WHOSE MOLE FRACTIONS
    WERE LESS THAN 5.000000E-06 FOR ALL ASSIGNED CONDITIONS

 *C              *CH             CH2             CH3             CH2OH          
 CH3O            CH4             CH3OH           CH3OOH          *CO            
 COOH            *C2             C2H             C2H2,acetylene  C2H2,vinylidene
 CH2CO,ketene    O(CH)2O         HO(CO)2OH       C2H3,vinyl      CH3CO,acetyl   
 C2H4            C2H4O,ethylen-o CH3CHO,ethanal  CH3COOH         OHCH2COOH      
 C2H5            C2H6            C2H5OH          CH3OCH3         CH3O2CH3       
 C2O             *C3             C3H3,1-propynl  C3H3,2-propynl  C3H4,allene    
 C3H4,propyne    C3H4,cyclo-     C3H5,allyl      C3H6,propylene  C3H6,cyclo-    
 C3H6O,propylox  C3H6O,acetone   C3H6O,propanal  C3H7,n-propyl   C3H7,i-propyl  
 C3H8            C3H8O,1propanol C3H8O,2propanol C3O2            *C4            
 C4H2,butadiyne  C4H4,1,3-cyclo- C4H6,butadiene  C4H6,1butyne    C4H6,2butyne   
 C4H6,cyclo-     C4H8,1-butene   C4H8,cis2-buten C4H8,tr2-butene C4H8,isobutene 
 C4H8,cyclo-     (CH3COOH)2      C4H9,n-butyl    C4H9,i-butyl    C4H9,s-butyl   
 C4H9,t-butyl    C4H10,n-butane  C4H10,isobutane *C5             C5H6,1,3cyclo- 
 C5H8,cyclo-     C5H10,1-pentene C5H10,cyclo-    C5H11,pentyl    C5H11,t-pentyl 
 C5H12,n-pentane C5H12,i-pentane CH3C(CH3)2CH3   C6H2            C6H5,phenyl    
 C6H5O,phenoxy   C6H6            C6H5OH,phenol   C6H10,cyclo-    C6H12,1-hexene 
 C6H12,cyclo-    C6H13,n-hexyl   C6H14,n-hexane  C7H7,benzyl     C7H8           
 C7H8O,cresol-mx C7H14,1-heptene C7H15,n-heptyl  C7H16,n-heptane C7H16,2-methylh
 C8H8,styrene    C8H10,ethylbenz C8H16,1-octene  C8H17,n-octyl   C8H18,n-octane 
 C8H18,isooctane C9H19,n-nonyl   C10H8,naphthale C10H21,n-decyl  C12H9,o-bipheny
 C12H10,biphenyl *H              HCO             HCCO            HO2            
 *H2             HCHO,formaldehy HCOOH           H2O2            (HCOOH)2       
 *O              *OH             O3              C(gr)           H2O(cr)        

 NOTE. WEIGHT FRACTION OF FUEL IN TOTAL FUELS AND OF OXIDANT IN TOTAL OXIDANTS






 WARNING!!  ASSIGNED pip =   0.00000 IS NOT PERMITTED
 TO BE LESS THAN  Pinj/Pc =  1.00052. POINT OMITTED (ROCKET)





              THEORETICAL ROCKET PERFORMANCE ASSUMING EQUILIBRIUM

            COMPOSITION DURING EXPANSION FROM FINITE AREA COMBUSTOR

 Pin =   162.9 PSIA
 Ac/At = 29.7521      Pinj/Pinf =  1.000262
 CASE =                

             REACTANT                    WT FRACTION      ENERGY      TEMP
                                          (SEE NOTE)     KJ/KG-MOL      K  
 OXIDANT     O2(L)                        1.0000000    -12979.000     90.170
 FUEL        PMMA                         1.0000000   -442140.000    293.150

 O/F=   50.70722  %FUEL=  1.933966  R,EQ.RATIO= 0.043846  PHI,EQ.RATIO= 0.037819

                 INJECTOR  COMB END  THROAT
 Pinj/P            1.0000   1.0005   1.8441
 P, BAR            11.230   11.224   6.0896
 T, K              387.39   387.37   327.29
 RHO, KG/CU M    1.1165 1 1.1160 1 7.1664 0
 H, KJ/KG         -483.17  -483.20  -539.81
 U, KJ/KG         -583.75  -583.77  -624.78
 G, KJ/KG        -2840.54 -2840.42 -2531.47
 S, KJ/(KG)(K)     6.0852   6.0853   6.0853

 M, (1/n)          32.024   32.024   32.025
 MW, MOL WT        32.024   32.024   32.024
 (dLV/dLP)t      -1.00000 -1.00000 -1.02537
 (dLV/dLT)p        1.0000   1.0000   1.3988
 Cp, KJ/(KG)(K)    0.9506   0.9506   2.5627
 GAMMAs            1.3758   1.3758   1.2090
 SON VEL,M/SEC      372.0    372.0    320.5
 MACH NUMBER        0.000    0.020    1.050

 PERFORMANCE PARAMETERS

 Ae/At                      29.754  1.00000
 CSTAR, M/SEC                465.5    465.5
 CF                         0.0156   0.7230
 Ivac, M/SEC               13854.0    589.0
 Isp, M/SEC                    7.3    336.6


 MOLE FRACTIONS

 *CO2             0.03093  0.03093  0.03093
 H2O              0.02474  0.02474  0.02474
 *O2              0.94432  0.94432  0.94432
 H2O(L)           0.00000  0.00000  0.00001

  * THERMODYNAMIC PROPERTIES FITTED TO 20000.K

    PRODUCTS WHICH WERE CONSIDERED BUT WHOSE MOLE FRACTIONS
    WERE LESS THAN 5.000000E-06 FOR ALL ASSIGNED CONDITIONS

 *C              *CH             CH2             CH3             CH2OH          
 CH3O            CH4             CH3OH           CH3OOH          *CO            
 COOH            *C2             C2H             C2H2,acetylene  C2H2,vinylidene
 CH2CO,ketene    O(CH)2O         HO(CO)2OH       C2H3,vinyl      CH3CO,acetyl   
 C2H4            C2H4O,ethylen-o CH3CHO,ethanal  CH3COOH         OHCH2COOH      
 C2H5            C2H6            C2H5OH          CH3OCH3         CH3O2CH3       
 C2O             *C3             C3H3,1-propynl  C3H3,2-propynl  C3H4,allene    
 C3H4,propyne    C3H4,cyclo-     C3H5,allyl      C3H6,propylene  C3H6,cyclo-    
 C3H6O,propylox  C3H6O,acetone   C3H6O,propanal  C3H7,n-propyl   C3H7,i-propyl  
 C3H8            C3H8O,1propanol C3H8O,2propanol C3O2            *C4            
 C4H2,butadiyne  C4H4,1,3-cyclo- C4H6,butadiene  C4H6,1butyne    C4H6,2butyne   
 C4H6,cyclo-     C4H8,1-butene   C4H8,cis2-buten C4H8,tr2-butene C4H8,isobutene 
 C4H8,cyclo-     (CH3COOH)2      C4H9,n-butyl    C4H9,i-butyl    C4H9,s-butyl   
 C4H9,t-butyl    C4H10,n-butane  C4H10,isobutane *C5             C5H6,1,3cyclo- 
 C5H8,cyclo-     C5H10,1-pentene C5H10,cyclo-    C5H11,pentyl    C5H11,t-pentyl 
 C5H12,n-pentane C5H12,i-pentane CH3C(CH3)2CH3   C6H2            C6H5,phenyl    
 C6H5O,phenoxy   C6H6            C6H5OH,phenol   C6H10,cyclo-    C6H12,1-hexene 
 C6H12,cyclo-    C6H13,n-hexyl   C6H14,n-hexane  C7H7,benzyl     C7H8           
 C7H8O,cresol-mx C7H14,1-heptene C7H15,n-heptyl  C7H16,n-heptane C7H16,2-methylh
 C8H8,styrene    C8H10,ethylbenz C8H16,1-octene  C8H17,n-octyl   C8H18,n-octane 
 C8H18,isooctane C9H19,n-nonyl   C10H8,naphthale C10H21,n-decyl  C12H9,o-bipheny
 C12H10,biphenyl *H              HCO             HCCO            HO2            
 *H2             HCHO,formaldehy HCOOH           H2O2            (HCOOH)2       
 *O              *OH             O3              C(gr)           H2O(cr)        

 NOTE. WEIGHT FRACTION OF FUEL IN TOTAL FUELS AND OF OXIDANT IN TOTAL OXIDANTS






  50 ITERATIONS DID NOT SATISFY CONVERGENCE
                REQUIREMENTS FOR THE POINT    4 (EQLBRM)

 CALCULATIONS STOPPED AFTER POINT  3(EQLBRM)





              THEORETICAL ROCKET PERFORMANCE ASSUMING EQUILIBRIUM

            COMPOSITION DURING EXPANSION FROM FINITE AREA COMBUSTOR

 Pin =   162.9 PSIA
 Ac/At = 29.7521      Pinj/Pinf =  1.000262
 CASE =                

             REACTANT                    WT FRACTION      ENERGY      TEMP
                                          (SEE NOTE)     KJ/KG-MOL      K  
 OXIDANT     O2(L)                        1.0000000    -12979.000     90.170
 FUEL        PMMA                         1.0000000   -442140.000    293.150

 O/F=   50.70722  %FUEL=  1.933966  R,EQ.RATIO= 0.043846  PHI,EQ.RATIO= 0.037819

                 INJECTOR  COMB END  THROAT
 Pinj/P            1.0000   1.0005   1.8441
 P, BAR            11.230   11.224   6.0896
 T, K              387.39   387.37   327.29
 RHO, KG/CU M    1.1165 1 1.1160 1 7.1664 0
 H, KJ/KG         -483.17  -483.20  -539.81
 U, KJ/KG         -583.75  -583.77  -624.78
 G, KJ/KG        -2840.54 -2840.42 -2531.47
 S, KJ/(KG)(K)     6.0852   6.0853   6.0853

 M, (1/n)          32.024   32.024   32.025
 MW, MOL WT        32.024   32.024   32.024
 (dLV/dLP)t      -1.00000 -1.00000 -1.02537
 (dLV/dLT)p        1.0000   1.0000   1.3988
 Cp, KJ/(KG)(K)    0.9506   0.9506   2.5627
 GAMMAs            1.3758   1.3758   1.2090
 SON VEL,M/SEC      372.0    372.0    320.5
 MACH NUMBER        0.000    0.020    1.050

 PERFORMANCE PARAMETERS

 Ae/At                      29.754   747.57
 CSTAR, M/SEC                465.5    465.5
 CF                         0.0156   0.7230
 Ivac, M/SEC               13854.0    589.0
 Isp, M/SEC                    7.3    336.6


 MOLE FRACTIONS

 *CO2             0.03093  0.03093  0.03093
 H2O              0.02474  0.02474  0.02474
 *O2              0.94432  0.94432  0.94432
 H2O(L)           0.00000  0.00000  0.00001

  * THERMODYNAMIC PROPERTIES FITTED TO 20000.K

    PRODUCTS WHICH WERE CONSIDERED BUT WHOSE MOLE FRACTIONS
    WERE LESS THAN 5.000000E-06 FOR ALL ASSIGNED CONDITIONS

 *C              *CH             CH2             CH3             CH2OH          
 CH3O            CH4             CH3OH           CH3OOH          *CO            
 COOH            *C2             C2H             C2H2,acetylene  C2H2,vinylidene
 CH2CO,ketene    O(CH)2O         HO(CO)2OH       C2H3,vinyl      CH3CO,acetyl   
 C2H4            C2H4O,ethylen-o CH3CHO,ethanal  CH3COOH         OHCH2COOH      
 C2H5            C2H6            C2H5OH          CH3OCH3         CH3O2CH3       
 C2O             *C3             C3H3,1-propynl  C3H3,2-propynl  C3H4,allene    
 C3H4,propyne    C3H4,cyclo-     C3H5,allyl      C3H6,propylene  C3H6,cyclo-    
 C3H6O,propylox  C3H6O,acetone   C3H6O,propanal  C3H7,n-propyl   C3H7,i-propyl  
 C3H8            C3H8O,1propanol C3H8O,2propanol C3O2            *C4            
 C4H2,butadiyne  C4H4,1,3-cyclo- C4H6,butadiene  C4H6,1butyne    C4H6,2butyne   
 C4H6,cyclo-     C4H8,1-butene   C4H8,cis2-buten C4H8,tr2-butene C4H8,isobutene 
 C4H8,cyclo-     (CH3COOH)2      C4H9,n-butyl    C4H9,i-butyl    C4H9,s-butyl   
 C4H9,t-butyl    C4H10,n-butane  C4H10,isobutane *C5             C5H6,1,3cyclo- 
 C5H8,cyclo-     C5H10,1-pentene C5H10,cyclo-    C5H11,pentyl    C5H11,t-pentyl 
 C5H12,n-pentane C5H12,i-pentane CH3C(CH3)2CH3   C6H2            C6H5,phenyl    
 C6H5O,phenoxy   C6H6            C6H5OH,phenol   C6H10,cyclo-    C6H12,1-hexene 
 C6H12,cyclo-    C6H13,n-hexyl   C6H14,n-hexane  C7H7,benzyl     C7H8           
 C7H8O,cresol-mx C7H14,1-heptene C7H15,n-heptyl  C7H16,n-heptane C7H16,2-methylh
 C8H8,styrene    C8H10,ethylbenz C8H16,1-octene  C8H17,n-octyl   C8H18,n-octane 
 C8H18,isooctane C9H19,n-nonyl   C10H8,naphthale C10H21,n-decyl  C12H9,o-bipheny
 C12H10,biphenyl *H              HCO             HCCO            HO2            
 *H2             HCHO,formaldehy HCOOH           H2O2            (HCOOH)2       
 *O              *OH             O3              C(gr)           H2O(cr)        

 NOTE. WEIGHT FRACTION OF FUEL IN TOTAL FUELS AND OF OXIDANT IN TOTAL OXIDANTS



