
 *******************************************************************************

         NASA-GLENN CHEMICAL EQUILIBRIUM PROGRAM CEA2, MAY 21, 2004
                   BY  BONNIE MCBRIDE AND SANFORD GORDON
      REFS: NASA RP-1311, PART I, 1994 AND NASA RP-1311, PART II, 1996

 *******************************************************************************



 prob rocket fac p,bar=68,ac/at=1.00,
 super=25, pi/pe=68
 reac
   fuel = CH4  moles=2.00   t(k)= 298.15
   oxid = N2O  moles=0.1428 t(k)= 298.15
   oxid = O2   moles=0.8571 t(k)= 298.15
 end

 OPTIONS: TP=F  HP=F  SP=F  TV=F  UV=F  SV=F  DETN=F  SHOCK=F  REFL=F  INCD=F
 RKT=T  FROZ=F  EQL=T  IONS=F  SIUNIT=T  DEBUGF=F  SHKDBG=F  DETDBG=F  TRNSPT=F

 TRACE= 0.00E+00  S/R= 0.000000E+00  H/R= 0.000000E+00  U/R= 0.000000E+00

 Pc,BAR =    68.000000

 Pc/P =    68.0000

 SUBSONIC AREA RATIOS =

 SUPERSONIC AREA RATIOS =    25.0000

 NFZ=  1  Mdot/Ac= 0.000000E+00  Ac/At= 1.000000E+00

    REACTANT           MOLES    (ENERGY/R),K   TEMP,K  DENSITY
        EXPLODED FORMULA
 F: CH4              2.000000  -0.897227E+04   298.15  0.0000
          C  1.00000  H  4.00000
 O: N2O              0.142800   0.981417E+04   298.15  0.0000
          N  2.00000  O  1.00000
 O: O2               0.857100  -0.154035E-05   298.15  0.0000
          O  2.00000

  SPECIES BEING CONSIDERED IN THIS SYSTEM
 (CONDENSED PHASE MAY HAVE NAME LISTED SEVERAL TIMES)
  LAST thermo.inp UPDATE:    9/09/04

  g 7/97  *C               tpis79  *CH              g 4/02  CH2            
  g 4/02  CH3              g11/00  CH2OH            g 7/00  CH3O           
  g 8/99  CH4              g 7/00  CH3OH            srd 01  CH3OOH         
  g 8/99  *CN              g12/99  CNN              tpis79  *CO            
  g 9/99  *CO2             tpis91  COOH             tpis91  *C2            
  g 6/01  C2H              g 1/91  C2H2,acetylene   g 5/01  C2H2,vinylidene
  g 4/02  CH2CO,ketene     g 3/02  O(CH)2O          srd 01  HO(CO)2OH      
  g 7/01  C2H3,vinyl       g 9/00  CH3CN            g 6/96  CH3CO,acetyl   
  g 1/00  C2H4             g 8/88  C2H4O,ethylen-o  g 8/88  CH3CHO,ethanal 
  g 6/00  CH3COOH          srd 01  OHCH2COOH        g 7/00  C2H5           
  g 7/00  C2H6             g 8/88  CH3N2CH3         g 8/88  C2H5OH         
  g 7/00  CH3OCH3          srd 01  CH3O2CH3         g 7/00  CCN            
  tpis91  CNC              srd 01  OCCN             tpis79  C2N2           
  g 8/00  C2O              tpis79  *C3              n 4/98  C3H3,1-propynl 
  n 4/98  C3H3,2-propynl   g 2/00  C3H4,allene      g 1/00  C3H4,propyne   
  g 5/90  C3H4,cyclo-      g 3/01  C3H5,allyl       g 2/00  C3H6,propylene 
  g 1/00  C3H6,cyclo-      g 6/01  C3H6O,propylox   g 6/97  C3H6O,acetone  
  g 1/02  C3H6O,propanal   g 7/01  C3H7,n-propyl    g 9/85  C3H7,i-propyl  
  g 2/00  C3H8             g 2/00  C3H8O,1propanol  g 2/00  C3H8O,2propanol
  srd 01  CNCOCN           g 7/88  C3O2             g tpis  *C4            
  g 7/01  C4H2,butadiyne   g 8/00  C4H4,1,3-cyclo-  n10/92  C4H6,butadiene 
  n10/93  C4H6,1butyne     n10/93  C4H6,2butyne     g 8/00  C4H6,cyclo-    
  n 4/88  C4H8,1-butene    n 4/88  C4H8,cis2-buten  n 4/88  C4H8,tr2-butene
  n 4/88  C4H8,isobutene   g 8/00  C4H8,cyclo-      g10/00  (CH3COOH)2     
  n10/84  C4H9,n-butyl     n10/84  C4H9,i-butyl     g 1/93  C4H9,s-butyl   
  g 1/93  C4H9,t-butyl     g12/00  C4H10,n-butane   g 8/00  C4H10,isobutane
  g 6/01  C4N2             g 8/00  *C5              g 5/90  C5H6,1,3cyclo- 
  g 1/93  C5H8,cyclo-      n 4/87  C5H10,1-pentene  g 2/01  C5H10,cyclo-   
  n10/84  C5H11,pentyl     g 1/93  C5H11,t-pentyl   n10/85  C5H12,n-pentane
  n10/85  C5H12,i-pentane  n10/85  CH3C(CH3)2CH3    g 2/93  C6H2           
  g11/00  C6H5,phenyl      g 8/00  C6H5O,phenoxy    g 8/00  C6H6           
  g 8/00  C6H5OH,phenol    g 1/93  C6H10,cyclo-     n 4/87  C6H12,1-hexene 
  g 6/90  C6H12,cyclo-     n10/83  C6H13,n-hexyl    g 6/01  C6H14,n-hexane 
  g 7/01  C7H7,benzyl      g 1/93  C7H8             g12/00  C7H8O,cresol-mx
  n 4/87  C7H14,1-heptene  n10/83  C7H15,n-heptyl   n10/85  C7H16,n-heptane
  n10/85  C7H16,2-methylh  n 4/89  C8H8,styrene     n10/86  C8H10,ethylbenz
  n 4/87  C8H16,1-octene   n10/83  C8H17,n-octyl    n 4/85  C8H18,n-octane 
  n 4/85  C8H18,isooctane  n10/83  C9H19,n-nonyl    g 3/01  C10H8,naphthale
  n10/83  C10H21,n-decyl   g 8/00  C12H9,o-bipheny  g 8/00  C12H10,biphenyl
  g 6/97  *H               g 6/01  HCN              g 1/01  HCO            
  tpis89  HCCN             g 6/01  HCCO             g 6/01  HNC            
  g 7/00  HNCO             g10/01  HNO              tpis89  HNO2           
  g 5/99  HNO3             g 4/02  HO2              tpis78  *H2            
  g 5/01  HCHO,formaldehy  g 6/01  HCOOH            g 8/89  H2O            
  g 6/99  H2O2             g 6/01  (HCOOH)2         g 5/97  *N             
  g 6/01  NCO              g 4/99  *NH              g 3/01  NH2            
  tpis89  NH3              tpis89  NH2OH            tpis89  *NO            
  g 4/99  NO2              j12/64  NO3              tpis78  *N2            
  g 6/01  NCN              g 5/99  N2H2             tpis89  NH2NO2         
  g 4/99  N2H4             g 4/99  N2O              g 4/99  N2O3           
  tpis89  N2O4             g 4/99  N2O5             tpis89  N3             
  g 4/99  N3H              g 5/97  *O               g 4/02  *OH            
  tpis89  *O2              g 8/01  O3               n 4/83  C(gr)          
  n 4/83  C(gr)            n 4/83  C(gr)            g11/99  H2O(cr)        
  g 8/01  H2O(L)           g 8/01  H2O(L)         

 O/F =   1.050687

                       EFFECTIVE FUEL     EFFECTIVE OXIDANT        MIXTURE
 ENTHALPY                  h(2)/R              h(1)/R               h0/R
 (KG-MOL)(K)/KG       -0.55928246E+03      0.41572630E+02     -0.25142926E+03

 KG-FORM.WT./KG             bi(2)               bi(1)               b0i
  *C                   0.62334580E-01      0.00000000E+00      0.30396929E-01
  *H                   0.24933832E+00      0.00000000E+00      0.12158772E+00
  *N                   0.00000000E+00      0.84719620E-02      0.43406815E-02
  *O                   0.00000000E+00      0.55085551E-01      0.28223549E-01

 POINT ITN      T            C           H           N           O 

   1   18    1310.953      -1.949      -7.352     -12.470     -31.668

   2    3    1289.159      -1.879      -7.447     -12.574     -32.104

 ADD  C(gr)          
   2    2    1289.922      -1.921      -7.444     -12.576     -32.068

 Pinf/Pt = 1.755759
   3    4    1210.169      -1.814      -7.638     -12.756     -33.320

 Pinf/Pt = 1.747341
   3    2    1210.802      -1.815      -7.636     -12.755     -33.310

 Pinf/Pt = 1.747402
   3    1    1210.797      -1.815      -7.636     -12.755     -33.310

   4    4    1218.206      -1.825      -7.616     -12.736     -33.185

   4    3    1214.618      -1.820      -7.626     -12.745     -33.245

   4    2    1212.738      -1.817      -7.631     -12.750     -33.277

   4    2    1211.775      -1.816      -7.633     -12.752     -33.293

   4    2    1211.288      -1.815      -7.635     -12.753     -33.301

   2    3    1293.129      -1.925      -7.430     -12.559     -32.006

 Pinf/Pt = 1.755830
   3    4    1213.042      -1.818      -7.623     -12.740     -33.258

 Pinf/Pt = 1.747439
   3    2    1213.675      -1.819      -7.622     -12.738     -33.247

 Pinf/Pt = 1.747499
   3    1    1213.671      -1.819      -7.622     -12.738     -33.247

   4    4    1221.111      -1.829      -7.602     -12.720     -33.123

   4    3    1217.508      -1.824      -7.611     -12.729     -33.183

   4    2    1215.620      -1.821      -7.616     -12.733     -33.215

   4    2    1214.653      -1.820      -7.619     -12.736     -33.231

   4    2    1214.164      -1.819      -7.620     -12.737     -33.239

 END OF CHAMBER ITERATIONS
   4    5     881.210      -1.352      -8.929     -13.990     -41.395

   5    4     766.965      -1.188      -9.617     -14.637     -45.982

   5    3     788.753      -1.220      -9.475     -14.506     -45.003

   5    2     788.815      -1.220      -9.475     -14.505     -45.001






              THEORETICAL ROCKET PERFORMANCE ASSUMING EQUILIBRIUM

            COMPOSITION DURING EXPANSION FROM FINITE AREA COMBUSTOR

 Pin =   986.3 PSIA
 Ac/At =  1.0000      Pinj/Pinf =  1.237106
 CASE =                

             REACTANT                       MOLES         ENERGY      TEMP
                                                         KJ/KG-MOL      K
 FUEL        CH4                          2.0000000    -74600.000    298.150
 OXIDANT     N2O                          0.1428000     81600.000    298.150
 OXIDANT     O2                           0.8571000        -0.000    298.150

 O/F=    1.05069  %FUEL= 48.764153  R,EQ.RATIO= 4.308024  PHI,EQ.RATIO= 4.308024

                 INJECTOR  COMB END  THROAT     EXIT     EXIT
 Pinj/P            1.0000   2.1538   2.1618   68.000   256.02
 P, BAR            68.000   31.572   31.455   1.0000  0.26561
 T, K             1310.95  1214.16  1213.67   881.21   788.82
 RHO, KG/CU M    8.3210 0 4.2105 0 4.1970 0 2.0319-1 6.2560-2
 H, KJ/KG        -2090.51 -2523.11 -2525.90 -4619.33 -5225.87
 U, KJ/KG        -2907.72 -3272.96 -3275.36 -5111.48 -5650.44
 G, KJ/KG        -20721.7 -19940.4 -19936.1 -17260.4 -16541.5
 S, KJ/(KG)(K)    14.2120  14.3451  14.3451  14.3451  14.3451

 M, (1/n)          13.338   13.463   13.465   14.887   15.448
 MW, MOL WT        13.338   13.110   13.109   12.682   12.677
 (dLV/dLP)t      -1.11074 -1.11403 -1.11405 -1.10222 -1.09055
 (dLV/dLT)p        2.1845   2.3225   2.3234   2.5473   2.4209
 Cp, KJ/(KG)(K)   11.0299  13.1448  13.1551  16.9217  15.5988
 GAMMAs            1.1890   1.1620   1.1619   1.1260   1.1257
 SON VEL,M/SEC      985.7    933.4    933.2    744.4    691.3
 MACH NUMBER        0.000    0.996    1.000    3.021    3.622

 PERFORMANCE PARAMETERS

 Ae/At                      1.0000   1.0000   8.5709   25.000
 CSTAR, M/SEC               1403.5   1403.5   1403.5   1403.5
 CF                         0.6628   0.6649   1.6024   1.7842
 Ivac, M/SEC                1736.3   1736.3   2467.8   2673.7
 Isp, M/SEC                  930.2    933.2   2248.9   2504.1


 MOLE FRACTIONS

 CH4              0.12224  0.11172  0.11170  0.09194  0.09174
 *CO              0.26180  0.23307  0.23289  0.07888  0.04008
 *CO2             0.02121  0.02735  0.02739  0.06650  0.07414
 C2H4             0.00003  0.00001  0.00001  0.00000  0.00000
 C2H6             0.00004  0.00002  0.00002  0.00000  0.00000
 HCN              0.00003  0.00001  0.00001  0.00000  0.00000
 *H2              0.49325  0.49071  0.49065  0.44092  0.41770
 H2O              0.07222  0.08222  0.08230  0.14604  0.16943
 NH3              0.00048  0.00034  0.00034  0.00008  0.00005
 *N2              0.02869  0.02828  0.02828  0.02748  0.02749
 C(gr)            0.00000  0.02626  0.02641  0.14816  0.17938

  * THERMODYNAMIC PROPERTIES FITTED TO 20000.K

    PRODUCTS WHICH WERE CONSIDERED BUT WHOSE MOLE FRACTIONS
    WERE LESS THAN 5.000000E-06 FOR ALL ASSIGNED CONDITIONS

 *C              *CH             CH2             CH3             CH2OH          
 CH3O            CH3OH           CH3OOH          *CN             CNN            
 COOH            *C2             C2H             C2H2,acetylene  C2H2,vinylidene
 CH2CO,ketene    O(CH)2O         HO(CO)2OH       C2H3,vinyl      CH3CN          
 CH3CO,acetyl    C2H4O,ethylen-o CH3CHO,ethanal  CH3COOH         OHCH2COOH      
 C2H5            CH3N2CH3        C2H5OH          CH3OCH3         CH3O2CH3       
 CCN             CNC             OCCN            C2N2            C2O            
 *C3             C3H3,1-propynl  C3H3,2-propynl  C3H4,allene     C3H4,propyne   
 C3H4,cyclo-     C3H5,allyl      C3H6,propylene  C3H6,cyclo-     C3H6O,propylox 
 C3H6O,acetone   C3H6O,propanal  C3H7,n-propyl   C3H7,i-propyl   C3H8           
 C3H8O,1propanol C3H8O,2propanol CNCOCN          C3O2            *C4            
 C4H2,butadiyne  C4H4,1,3-cyclo- C4H6,butadiene  C4H6,1butyne    C4H6,2butyne   
 C4H6,cyclo-     C4H8,1-butene   C4H8,cis2-buten C4H8,tr2-butene C4H8,isobutene 
 C4H8,cyclo-     (CH3COOH)2      C4H9,n-butyl    C4H9,i-butyl    C4H9,s-butyl   
 C4H9,t-butyl    C4H10,n-butane  C4H10,isobutane C4N2            *C5            
 C5H6,1,3cyclo-  C5H8,cyclo-     C5H10,1-pentene C5H10,cyclo-    C5H11,pentyl   
 C5H11,t-pentyl  C5H12,n-pentane C5H12,i-pentane CH3C(CH3)2CH3   C6H2           
 C6H5,phenyl     C6H5O,phenoxy   C6H6            C6H5OH,phenol   C6H10,cyclo-   
 C6H12,1-hexene  C6H12,cyclo-    C6H13,n-hexyl   C6H14,n-hexane  C7H7,benzyl    
 C7H8            C7H8O,cresol-mx C7H14,1-heptene C7H15,n-heptyl  C7H16,n-heptane
 C7H16,2-methylh C8H8,styrene    C8H10,ethylbenz C8H16,1-octene  C8H17,n-octyl  
 C8H18,n-octane  C8H18,isooctane C9H19,n-nonyl   C10H8,naphthale C10H21,n-decyl 
 C12H9,o-bipheny C12H10,biphenyl *H              HCO             HCCN           
 HCCO            HNC             HNCO            HNO             HNO2           
 HNO3            HO2             HCHO,formaldehy HCOOH           H2O2           
 (HCOOH)2        *N              NCO             *NH             NH2            
 NH2OH           *NO             NO2             NO3             NCN            
 N2H2            NH2NO2          N2H4            N2O             N2O3           
 N2O4            N2O5            N3              N3H             *O             
 *OH             *O2             O3              H2O(cr)         H2O(L)         



