
 *******************************************************************************

         NASA-GLENN CHEMICAL EQUILIBRIUM PROGRAM CEA2, MAY 21, 2004
                   BY  BONNIE MCBRIDE AND SANFORD GORDON
      REFS: NASA RP-1311, PART I, 1994 AND NASA RP-1311, PART II, 1996

 *******************************************************************************



 prob rocket fac p,bar=68,ac/at=1.00,
 super=25,50, pi/pe=10,68
 reac
   fuel = CH4  moles=0.05 t(k)= 298.15
   oxid = N2O  moles=1.00 t(k)= 298.15
 end

 OPTIONS: TP=F  HP=F  SP=F  TV=F  UV=F  SV=F  DETN=F  SHOCK=F  REFL=F  INCD=F
 RKT=T  FROZ=F  EQL=T  IONS=F  SIUNIT=T  DEBUGF=F  SHKDBG=F  DETDBG=F  TRNSPT=F

 TRACE= 0.00E+00  S/R= 0.000000E+00  H/R= 0.000000E+00  U/R= 0.000000E+00

 Pc,BAR =    68.000000

 Pc/P =    10.0000    68.0000

 SUBSONIC AREA RATIOS =

 SUPERSONIC AREA RATIOS =    25.0000    50.0000

 NFZ=  1  Mdot/Ac= 0.000000E+00  Ac/At= 1.000000E+00

    REACTANT           MOLES    (ENERGY/R),K   TEMP,K  DENSITY
        EXPLODED FORMULA
 F: CH4              0.050000  -0.897227E+04   298.15  0.0000
          C  1.00000  H  4.00000
 O: N2O              1.000000   0.981417E+04   298.15  0.0000
          N  2.00000  O  1.00000

  SPECIES BEING CONSIDERED IN THIS SYSTEM
 (CONDENSED PHASE MAY HAVE NAME LISTED SEVERAL TIMES)
  LAST thermo.inp UPDATE:    9/09/04

  g 7/97  *C               tpis79  *CH              g 4/02  CH2            
  g 4/02  CH3              g11/00  CH2OH            g 7/00  CH3O           
  g 8/99  CH4              g 7/00  CH3OH            srd 01  CH3OOH         
  g 8/99  *CN              g12/99  CNN              tpis79  *CO            
  g 9/99  *CO2             tpis91  COOH             tpis91  *C2            
  g 6/01  C2H              g 1/91  C2H2,acetylene   g 5/01  C2H2,vinylidene
  g 4/02  CH2CO,ketene     g 3/02  O(CH)2O          srd 01  HO(CO)2OH      
  g 7/01  C2H3,vinyl       g 9/00  CH3CN            g 6/96  CH3CO,acetyl   
  g 1/00  C2H4             g 8/88  C2H4O,ethylen-o  g 8/88  CH3CHO,ethanal 
  g 6/00  CH3COOH          srd 01  OHCH2COOH        g 7/00  C2H5           
  g 7/00  C2H6             g 8/88  CH3N2CH3         g 8/88  C2H5OH         
  g 7/00  CH3OCH3          srd 01  CH3O2CH3         g 7/00  CCN            
  tpis91  CNC              srd 01  OCCN             tpis79  C2N2           
  g 8/00  C2O              tpis79  *C3              n 4/98  C3H3,1-propynl 
  n 4/98  C3H3,2-propynl   g 2/00  C3H4,allene      g 1/00  C3H4,propyne   
  g 5/90  C3H4,cyclo-      g 3/01  C3H5,allyl       g 2/00  C3H6,propylene 
  g 1/00  C3H6,cyclo-      g 6/01  C3H6O,propylox   g 6/97  C3H6O,acetone  
  g 1/02  C3H6O,propanal   g 7/01  C3H7,n-propyl    g 9/85  C3H7,i-propyl  
  g 2/00  C3H8             g 2/00  C3H8O,1propanol  g 2/00  C3H8O,2propanol
  srd 01  CNCOCN           g 7/88  C3O2             g tpis  *C4            
  g 7/01  C4H2,butadiyne   g 8/00  C4H4,1,3-cyclo-  n10/92  C4H6,butadiene 
  n10/93  C4H6,1butyne     n10/93  C4H6,2butyne     g 8/00  C4H6,cyclo-    
  n 4/88  C4H8,1-butene    n 4/88  C4H8,cis2-buten  n 4/88  C4H8,tr2-butene
  n 4/88  C4H8,isobutene   g 8/00  C4H8,cyclo-      g10/00  (CH3COOH)2     
  n10/84  C4H9,n-butyl     n10/84  C4H9,i-butyl     g 1/93  C4H9,s-butyl   
  g 1/93  C4H9,t-butyl     g12/00  C4H10,n-butane   g 8/00  C4H10,isobutane
  g 6/01  C4N2             g 8/00  *C5              g 5/90  C5H6,1,3cyclo- 
  g 1/93  C5H8,cyclo-      n 4/87  C5H10,1-pentene  g 2/01  C5H10,cyclo-   
  n10/84  C5H11,pentyl     g 1/93  C5H11,t-pentyl   n10/85  C5H12,n-pentane
  n10/85  C5H12,i-pentane  n10/85  CH3C(CH3)2CH3    g 2/93  C6H2           
  g11/00  C6H5,phenyl      g 8/00  C6H5O,phenoxy    g 8/00  C6H6           
  g 8/00  C6H5OH,phenol    g 1/93  C6H10,cyclo-     n 4/87  C6H12,1-hexene 
  g 6/90  C6H12,cyclo-     n10/83  C6H13,n-hexyl    g 6/01  C6H14,n-hexane 
  g 7/01  C7H7,benzyl      g 1/93  C7H8             g12/00  C7H8O,cresol-mx
  n 4/87  C7H14,1-heptene  n10/83  C7H15,n-heptyl   n10/85  C7H16,n-heptane
  n10/85  C7H16,2-methylh  n 4/89  C8H8,styrene     n10/86  C8H10,ethylbenz
  n 4/87  C8H16,1-octene   n10/83  C8H17,n-octyl    n 4/85  C8H18,n-octane 
  n 4/85  C8H18,isooctane  n10/83  C9H19,n-nonyl    g 3/01  C10H8,naphthale
  n10/83  C10H21,n-decyl   g 8/00  C12H9,o-bipheny  g 8/00  C12H10,biphenyl
  g 6/97  *H               g 6/01  HCN              g 1/01  HCO            
  tpis89  HCCN             g 6/01  HCCO             g 6/01  HNC            
  g 7/00  HNCO             g10/01  HNO              tpis89  HNO2           
  g 5/99  HNO3             g 4/02  HO2              tpis78  *H2            
  g 5/01  HCHO,formaldehy  g 6/01  HCOOH            g 8/89  H2O            
  g 6/99  H2O2             g 6/01  (HCOOH)2         g 5/97  *N             
  g 6/01  NCO              g 4/99  *NH              g 3/01  NH2            
  tpis89  NH3              tpis89  NH2OH            tpis89  *NO            
  g 4/99  NO2              j12/64  NO3              tpis78  *N2            
  g 6/01  NCN              g 5/99  N2H2             tpis89  NH2NO2         
  g 4/99  N2H4             g 4/99  N2O              g 4/99  N2O3           
  tpis89  N2O4             g 4/99  N2O5             tpis89  N3             
  g 4/99  N3H              g 5/97  *O               g 4/02  *OH            
  tpis89  *O2              g 8/01  O3               n 4/83  C(gr)          
  n 4/83  C(gr)            n 4/83  C(gr)            g11/99  H2O(cr)        
  g 8/01  H2O(L)           g 8/01  H2O(L)         

 O/F =  54.870388

                       EFFECTIVE FUEL     EFFECTIVE OXIDANT        MIXTURE
 ENTHALPY                  h(2)/R              h(1)/R               h0/R
 (KG-MOL)(K)/KG       -0.55928246E+03      0.22298441E+03      0.20898295E+03

 KG-FORM.WT./KG             bi(2)               bi(1)               b0i
  *C                   0.62334580E-01      0.00000000E+00      0.11156998E-02
  *H                   0.24933832E+00      0.00000000E+00      0.44627991E-02
  *N                   0.00000000E+00      0.45441326E-01      0.44627991E-01
  *O                   0.00000000E+00      0.22720663E-01      0.22313996E-01

 POINT ITN      T            C           H           N           O 

   1   26    2432.442     -24.826     -12.772     -11.928     -13.331

   2    2    2430.944     -24.838     -12.839     -12.053     -13.456

 Pinf/Pt = 1.789508
   3    4    2176.247     -26.904     -13.525     -12.146     -13.532

 Pinf/Pt = 1.799871
   3    2    2173.789     -26.927     -13.532     -12.147     -13.533

 Pinf/Pt = 1.799968
   3    1    2173.766     -26.927     -13.532     -12.147     -13.533

   4    4    2198.857     -26.700     -13.457     -12.138     -13.525

   4    2    2186.737     -26.809     -13.493     -12.142     -13.529

   4    2    2180.363     -26.867     -13.512     -12.145     -13.531

   4    2    2177.093     -26.897     -13.522     -12.146     -13.532

   4    2    2175.436     -26.912     -13.527     -12.146     -13.532

   2    2    2431.134     -24.836     -12.830     -12.037     -13.440

 Pinf/Pt = 1.789584
   3    4    2176.296     -26.904     -13.517     -12.131     -13.517

 Pinf/Pt = 1.799914
   3    2    2173.845     -26.926     -13.524     -12.132     -13.518

 Pinf/Pt = 1.800011
   3    1    2173.822     -26.926     -13.524     -12.132     -13.518

   4    4    2198.922     -26.700     -13.449     -12.122     -13.510

   4    2    2186.798     -26.809     -13.485     -12.127     -13.514

   4    2    2180.421     -26.866     -13.505     -12.129     -13.516

   4    2    2177.150     -26.896     -13.514     -12.130     -13.517

   4    2    2175.493     -26.911     -13.519     -12.131     -13.517

 END OF CHAMBER ITERATIONS
   4    4    1593.203     -34.297     -15.943     -12.361     -13.712

   5    4    1026.529     -50.024     -21.012     -12.684     -13.996

   6    4     663.153     -74.816     -28.875     -13.057     -14.343

   6    3     630.187     -78.508     -30.038     -13.106     -14.390

   6    1     630.199     -78.506     -30.038     -13.106     -14.390

   7    3     484.212    -100.979     -37.102     -13.388     -14.664

   7    2     484.341    -100.953     -37.094     -13.387     -14.663






              THEORETICAL ROCKET PERFORMANCE ASSUMING EQUILIBRIUM

            COMPOSITION DURING EXPANSION FROM FINITE AREA COMBUSTOR

 Pin =   986.3 PSIA
 Ac/At =  1.0000      Pinj/Pinf =  1.247204
 CASE =                

             REACTANT                       MOLES         ENERGY      TEMP
                                                         KJ/KG-MOL      K
 FUEL        CH4                          0.0500000    -74600.000    298.150
 OXIDANT     N2O                          1.0000000     81600.000    298.150

 O/F=   54.87039  %FUEL=  1.789857  R,EQ.RATIO= 0.200000  PHI,EQ.RATIO= 0.200000

                 INJECTOR  COMB END  THROAT     EXIT     EXIT     EXIT     EXIT
 Pinj/P            1.0000   2.2362   2.2450   10.000   68.000   477.32  1282.88
 P, BAR            68.000   30.409   30.290   6.8000   1.0000  0.14246  0.05301
 T, K             2432.44  2175.49  2173.82  1593.20  1026.53   630.20   484.34
 RHO, KG/CU M    9.7088 0 4.8580 0 4.8428 0 1.4842 0 3.3875-1 7.8609-2 3.8056-2
 H, KJ/KG         1737.59  1350.69  1348.23   543.10  -169.90  -626.73  -784.38
 U, KJ/KG         1037.20   724.74   722.77   84.929  -465.10  -807.96  -923.66
 G, KJ/KG        -18494.8 -16882.9 -16871.3 -12810.1 -8773.60 -5908.65 -4843.81
 S, KJ/(KG)(K)     8.3177   8.3814   8.3814   8.3814   8.3814   8.3814   8.3814

 M, (1/n)          28.876   28.897   28.897   28.912   28.913   28.913   28.913
 (dLV/dLP)t      -1.00051 -1.00021 -1.00021 -1.00001 -1.00000 -1.00000 -1.00000
 (dLV/dLT)p        1.0128   1.0060   1.0059   1.0003   1.0000   1.0000   1.0000
 Cp, KJ/(KG)(K)    1.5730   1.4784   1.4778   1.3157   1.2007   1.1004   1.0622
 GAMMAs            1.2304   1.2449   1.2450   1.2799   1.3149   1.3538   1.3712
 SON VEL,M/SEC      928.3    882.8    882.4    765.8    623.0    495.3    437.0
 MACH NUMBER        0.000    0.996    1.000    2.018    3.135    4.390    5.139

 PERFORMANCE PARAMETERS

 Ae/At                      1.0000   1.0000   1.8629   6.4588   25.000   50.000
 CSTAR, M/SEC               1275.8   1275.8   1275.8   1275.8   1275.8   1275.8
 CF                         0.6895   0.6917   1.2115   1.5309   1.7044   1.7603
 Ivac, M/SEC                1591.2   1591.2   1842.1   2104.3   2257.9   2307.9
 Isp, M/SEC                  879.7    882.4   1545.6   1953.2   2174.5   2245.9


 MOLE FRACTIONS

 *CO              0.00020  0.00006  0.00006  0.00000  0.00000  0.00000  0.00000
 *CO2             0.03202  0.03218  0.03218  0.03226  0.03226  0.03226  0.03226
 *H               0.00002  0.00000  0.00000  0.00000  0.00000  0.00000  0.00000
 HNO2             0.00001  0.00000  0.00000  0.00000  0.00000  0.00000  0.00000
 HO2              0.00003  0.00001  0.00001  0.00000  0.00000  0.00000  0.00000
 *H2              0.00006  0.00002  0.00002  0.00000  0.00000  0.00000  0.00000
 H2O              0.06249  0.06355  0.06356  0.06446  0.06452  0.06452  0.06452
 *NO              0.01979  0.01176  0.01172  0.00188  0.00004  0.00000  0.00000
 NO2              0.00017  0.00009  0.00009  0.00002  0.00000  0.00000  0.00000
 *N2              0.63435  0.63888  0.63890  0.64420  0.64514  0.64516  0.64516
 N2O              0.00001  0.00000  0.00000  0.00000  0.00000  0.00000  0.00000
 *O               0.00062  0.00021  0.00021  0.00000  0.00000  0.00000  0.00000
 *OH              0.00369  0.00179  0.00178  0.00010  0.00000  0.00000  0.00000
 *O2              0.24654  0.25143  0.25145  0.25707  0.25804  0.25806  0.25806

  * THERMODYNAMIC PROPERTIES FITTED TO 20000.K

    PRODUCTS WHICH WERE CONSIDERED BUT WHOSE MOLE FRACTIONS
    WERE LESS THAN 5.000000E-06 FOR ALL ASSIGNED CONDITIONS

 *C              *CH             CH2             CH3             CH2OH          
 CH3O            CH4             CH3OH           CH3OOH          *CN            
 CNN             COOH            *C2             C2H             C2H2,acetylene 
 C2H2,vinylidene CH2CO,ketene    O(CH)2O         HO(CO)2OH       C2H3,vinyl     
 CH3CN           CH3CO,acetyl    C2H4            C2H4O,ethylen-o CH3CHO,ethanal 
 CH3COOH         OHCH2COOH       C2H5            C2H6            CH3N2CH3       
 C2H5OH          CH3OCH3         CH3O2CH3        CCN             CNC            
 OCCN            C2N2            C2O             *C3             C3H3,1-propynl 
 C3H3,2-propynl  C3H4,allene     C3H4,propyne    C3H4,cyclo-     C3H5,allyl     
 C3H6,propylene  C3H6,cyclo-     C3H6O,propylox  C3H6O,acetone   C3H6O,propanal 
 C3H7,n-propyl   C3H7,i-propyl   C3H8            C3H8O,1propanol C3H8O,2propanol
 CNCOCN          C3O2            *C4             C4H2,butadiyne  C4H4,1,3-cyclo-
 C4H6,butadiene  C4H6,1butyne    C4H6,2butyne    C4H6,cyclo-     C4H8,1-butene  
 C4H8,cis2-buten C4H8,tr2-butene C4H8,isobutene  C4H8,cyclo-     (CH3COOH)2     
 C4H9,n-butyl    C4H9,i-butyl    C4H9,s-butyl    C4H9,t-butyl    C4H10,n-butane 
 C4H10,isobutane C4N2            *C5             C5H6,1,3cyclo-  C5H8,cyclo-    
 C5H10,1-pentene C5H10,cyclo-    C5H11,pentyl    C5H11,t-pentyl  C5H12,n-pentane
 C5H12,i-pentane CH3C(CH3)2CH3   C6H2            C6H5,phenyl     C6H5O,phenoxy  
 C6H6            C6H5OH,phenol   C6H10,cyclo-    C6H12,1-hexene  C6H12,cyclo-   
 C6H13,n-hexyl   C6H14,n-hexane  C7H7,benzyl     C7H8            C7H8O,cresol-mx
 C7H14,1-heptene C7H15,n-heptyl  C7H16,n-heptane C7H16,2-methylh C8H8,styrene   
 C8H10,ethylbenz C8H16,1-octene  C8H17,n-octyl   C8H18,n-octane  C8H18,isooctane
 C9H19,n-nonyl   C10H8,naphthale C10H21,n-decyl  C12H9,o-bipheny C12H10,biphenyl
 HCN             HCO             HCCN            HCCO            HNC            
 HNCO            HNO             HNO3            HCHO,formaldehy HCOOH          
 H2O2            (HCOOH)2        *N              NCO             *NH            
 NH2             NH3             NH2OH           NO3             NCN            
 N2H2            NH2NO2          N2H4            N2O3            N2O4           
 N2O5            N3              N3H             O3              C(gr)          
 H2O(cr)         H2O(L)         



