
 *******************************************************************************

         NASA-GLENN CHEMICAL EQUILIBRIUM PROGRAM CEA2, MAY 21, 2004
                   BY  BONNIE MCBRIDE AND SANFORD GORDON
      REFS: NASA RP-1311, PART I, 1994 AND NASA RP-1311, PART II, 1996

 *******************************************************************************



 prob rocket fac p,bar=68,ac/at=1.00,
 super=25, pi/pe=68
 reac
   fuel = CH4  moles=1.00 t(k)= 298.15
   oxid = N2O  moles=1.00 t(k)= 298.15
 end

 OPTIONS: TP=F  HP=F  SP=F  TV=F  UV=F  SV=F  DETN=F  SHOCK=F  REFL=F  INCD=F
 RKT=T  FROZ=F  EQL=T  IONS=F  SIUNIT=T  DEBUGF=F  SHKDBG=F  DETDBG=F  TRNSPT=F

 TRACE= 0.00E+00  S/R= 0.000000E+00  H/R= 0.000000E+00  U/R= 0.000000E+00

 Pc,BAR =    68.000000

 Pc/P =    68.0000

 SUBSONIC AREA RATIOS =

 SUPERSONIC AREA RATIOS =    25.0000

 NFZ=  1  Mdot/Ac= 0.000000E+00  Ac/At= 1.000000E+00

    REACTANT           MOLES    (ENERGY/R),K   TEMP,K  DENSITY
        EXPLODED FORMULA
 F: CH4              1.000000  -0.897227E+04   298.15  0.0000
          C  1.00000  H  4.00000
 O: N2O              1.000000   0.981417E+04   298.15  0.0000
          N  2.00000  O  1.00000

  SPECIES BEING CONSIDERED IN THIS SYSTEM
 (CONDENSED PHASE MAY HAVE NAME LISTED SEVERAL TIMES)
  LAST thermo.inp UPDATE:    9/09/04

  g 7/97  *C               tpis79  *CH              g 4/02  CH2            
  g 4/02  CH3              g11/00  CH2OH            g 7/00  CH3O           
  g 8/99  CH4              g 7/00  CH3OH            srd 01  CH3OOH         
  g 8/99  *CN              g12/99  CNN              tpis79  *CO            
  g 9/99  *CO2             tpis91  COOH             tpis91  *C2            
  g 6/01  C2H              g 1/91  C2H2,acetylene   g 5/01  C2H2,vinylidene
  g 4/02  CH2CO,ketene     g 3/02  O(CH)2O          srd 01  HO(CO)2OH      
  g 7/01  C2H3,vinyl       g 9/00  CH3CN            g 6/96  CH3CO,acetyl   
  g 1/00  C2H4             g 8/88  C2H4O,ethylen-o  g 8/88  CH3CHO,ethanal 
  g 6/00  CH3COOH          srd 01  OHCH2COOH        g 7/00  C2H5           
  g 7/00  C2H6             g 8/88  CH3N2CH3         g 8/88  C2H5OH         
  g 7/00  CH3OCH3          srd 01  CH3O2CH3         g 7/00  CCN            
  tpis91  CNC              srd 01  OCCN             tpis79  C2N2           
  g 8/00  C2O              tpis79  *C3              n 4/98  C3H3,1-propynl 
  n 4/98  C3H3,2-propynl   g 2/00  C3H4,allene      g 1/00  C3H4,propyne   
  g 5/90  C3H4,cyclo-      g 3/01  C3H5,allyl       g 2/00  C3H6,propylene 
  g 1/00  C3H6,cyclo-      g 6/01  C3H6O,propylox   g 6/97  C3H6O,acetone  
  g 1/02  C3H6O,propanal   g 7/01  C3H7,n-propyl    g 9/85  C3H7,i-propyl  
  g 2/00  C3H8             g 2/00  C3H8O,1propanol  g 2/00  C3H8O,2propanol
  srd 01  CNCOCN           g 7/88  C3O2             g tpis  *C4            
  g 7/01  C4H2,butadiyne   g 8/00  C4H4,1,3-cyclo-  n10/92  C4H6,butadiene 
  n10/93  C4H6,1butyne     n10/93  C4H6,2butyne     g 8/00  C4H6,cyclo-    
  n 4/88  C4H8,1-butene    n 4/88  C4H8,cis2-buten  n 4/88  C4H8,tr2-butene
  n 4/88  C4H8,isobutene   g 8/00  C4H8,cyclo-      g10/00  (CH3COOH)2     
  n10/84  C4H9,n-butyl     n10/84  C4H9,i-butyl     g 1/93  C4H9,s-butyl   
  g 1/93  C4H9,t-butyl     g12/00  C4H10,n-butane   g 8/00  C4H10,isobutane
  g 6/01  C4N2             g 8/00  *C5              g 5/90  C5H6,1,3cyclo- 
  g 1/93  C5H8,cyclo-      n 4/87  C5H10,1-pentene  g 2/01  C5H10,cyclo-   
  n10/84  C5H11,pentyl     g 1/93  C5H11,t-pentyl   n10/85  C5H12,n-pentane
  n10/85  C5H12,i-pentane  n10/85  CH3C(CH3)2CH3    g 2/93  C6H2           
  g11/00  C6H5,phenyl      g 8/00  C6H5O,phenoxy    g 8/00  C6H6           
  g 8/00  C6H5OH,phenol    g 1/93  C6H10,cyclo-     n 4/87  C6H12,1-hexene 
  g 6/90  C6H12,cyclo-     n10/83  C6H13,n-hexyl    g 6/01  C6H14,n-hexane 
  g 7/01  C7H7,benzyl      g 1/93  C7H8             g12/00  C7H8O,cresol-mx
  n 4/87  C7H14,1-heptene  n10/83  C7H15,n-heptyl   n10/85  C7H16,n-heptane
  n10/85  C7H16,2-methylh  n 4/89  C8H8,styrene     n10/86  C8H10,ethylbenz
  n 4/87  C8H16,1-octene   n10/83  C8H17,n-octyl    n 4/85  C8H18,n-octane 
  n 4/85  C8H18,isooctane  n10/83  C9H19,n-nonyl    g 3/01  C10H8,naphthale
  n10/83  C10H21,n-decyl   g 8/00  C12H9,o-bipheny  g 8/00  C12H10,biphenyl
  g 6/97  *H               g 6/01  HCN              g 1/01  HCO            
  tpis89  HCCN             g 6/01  HCCO             g 6/01  HNC            
  g 7/00  HNCO             g10/01  HNO              tpis89  HNO2           
  g 5/99  HNO3             g 4/02  HO2              tpis78  *H2            
  g 5/01  HCHO,formaldehy  g 6/01  HCOOH            g 8/89  H2O            
  g 6/99  H2O2             g 6/01  (HCOOH)2         g 5/97  *N             
  g 6/01  NCO              g 4/99  *NH              g 3/01  NH2            
  tpis89  NH3              tpis89  NH2OH            tpis89  *NO            
  g 4/99  NO2              j12/64  NO3              tpis78  *N2            
  g 6/01  NCN              g 5/99  N2H2             tpis89  NH2NO2         
  g 4/99  N2H4             g 4/99  N2O              g 4/99  N2O3           
  tpis89  N2O4             g 4/99  N2O5             tpis89  N3             
  g 4/99  N3H              g 5/97  *O               g 4/02  *OH            
  tpis89  *O2              g 8/01  O3               n 4/83  C(gr)          
  n 4/83  C(gr)            n 4/83  C(gr)            g11/99  H2O(cr)        
  g 8/01  H2O(L)           g 8/01  H2O(L)         

 O/F =   2.743519

                       EFFECTIVE FUEL     EFFECTIVE OXIDANT        MIXTURE
 ENTHALPY                  h(2)/R              h(1)/R               h0/R
 (KG-MOL)(K)/KG       -0.55928246E+03      0.22298441E+03      0.14018784E+02

 KG-FORM.WT./KG             bi(2)               bi(1)               b0i
  *C                   0.62334580E-01      0.00000000E+00      0.16651331E-01
  *H                   0.24933832E+00      0.00000000E+00      0.66605323E-01
  *N                   0.00000000E+00      0.45441326E-01      0.33302662E-01
  *O                   0.00000000E+00      0.22720663E-01      0.16651331E-01

 POINT ITN      T            C           H           N           O 

   1   18    1454.265      -2.520      -7.551     -11.513     -30.541

   2    3    1435.794      -2.472      -7.652     -11.623     -30.910

 Pinf/Pt = 1.799948
   3    4    1306.769      -2.090      -7.831     -11.767     -32.546

 Pinf/Pt = 1.784622
   3    2    1308.452      -2.096      -7.828     -11.765     -32.522

 Pinf/Pt = 1.784831
   3    1    1308.429      -2.096      -7.828     -11.765     -32.522

   4    3    1319.971      -2.132      -7.809     -11.750     -32.361

   4    3    1314.370      -2.114      -7.818     -11.757     -32.439

   4    2    1311.444      -2.105      -7.823     -11.761     -32.480

   4    2    1309.948      -2.100      -7.825     -11.763     -32.501

   4    2    1309.192      -2.098      -7.827     -11.764     -32.511

   2    2    1438.059      -2.478      -7.639     -11.609     -30.864

 Pinf/Pt = 1.799784
   3    3    1308.974      -2.097      -7.818     -11.754     -32.496

 Pinf/Pt = 1.784572
   3    2    1310.647      -2.102      -7.815     -11.751     -32.473

 Pinf/Pt = 1.784778
   3    1    1310.624      -2.102      -7.815     -11.751     -32.473

   4    3    1322.177      -2.138      -7.797     -11.736     -32.312

   4    3    1316.571      -2.121      -7.806     -11.744     -32.390

   4    2    1313.642      -2.112      -7.810     -11.747     -32.431

   4    2    1312.144      -2.107      -7.813     -11.749     -32.452

   4    2    1311.387      -2.105      -7.814     -11.750     -32.462

 END OF CHAMBER ITERATIONS
   4    5     891.410      -0.397      -9.153     -12.883     -41.773

 ADD  C(gr)          
   4    3     901.824      -1.382      -9.080     -12.904     -41.005

   5    4     773.154      -1.197      -9.794     -13.565     -45.908

   5    3     796.815      -1.231      -9.651     -13.435     -44.882

   5    2     796.875      -1.231      -9.651     -13.435     -44.879






              THEORETICAL ROCKET PERFORMANCE ASSUMING EQUILIBRIUM

            COMPOSITION DURING EXPANSION FROM FINITE AREA COMBUSTOR

 Pin =   986.3 PSIA
 Ac/At =  1.0000      Pinj/Pinf =  1.246116
 CASE =                

             REACTANT                       MOLES         ENERGY      TEMP
                                                         KJ/KG-MOL      K
 FUEL        CH4                          1.0000000    -74600.000    298.150
 OXIDANT     N2O                          1.0000000     81600.000    298.150

 O/F=    2.74352  %FUEL= 26.712831  R,EQ.RATIO= 4.000000  PHI,EQ.RATIO= 4.000000

                 INJECTOR  COMB END  THROAT     EXIT     EXIT
 Pinj/P            1.0000   2.2155   2.2240   68.000   273.83
 P, BAR            68.000   30.693   30.575   1.0000  0.24833
 T, K             1454.26  1311.39  1310.62   901.82   796.88
 RHO, KG/CU M    8.9557 0 4.5381 0 4.5238 0 2.3971-1 7.0161-2
 H, KJ/KG          116.56  -294.47  -297.08 -2099.09 -2634.86
 U, KJ/KG         -642.74  -970.83  -972.96 -2516.27 -2988.80
 G, KJ/KG        -17373.8 -16217.5 -16210.9 -13049.2 -12310.6
 S, KJ/(KG)(K)    12.0270  12.1421  12.1421  12.1421  12.1421

 M, (1/n)          15.925   16.121   16.123   17.974   18.720
 MW, MOL WT        15.925   16.121   16.123   16.385   16.440
 (dLV/dLP)t      -1.04665 -1.05363 -1.05370 -1.07093 -1.06152
 (dLV/dLT)p        1.4426   1.5710   1.5721   2.1223   2.0137
 Cp, KJ/(KG)(K)    4.4690   5.3766   5.3840  10.9319  10.0436
 GAMMAs            1.2445   1.2242   1.2240   1.1359   1.1335
 SON VEL,M/SEC      972.1    909.9    909.6    688.4    633.4
 MACH NUMBER        0.000    0.996    1.000    3.058    3.703

 PERFORMANCE PARAMETERS

 Ae/At                      1.0000   1.0000   8.1542   25.000
 CSTAR, M/SEC               1326.2   1326.2   1326.2   1326.2
 CF                         0.6836   0.6858   1.5872   1.7688
 Ivac, M/SEC                1652.6   1652.6   2303.2   2496.7
 Isp, M/SEC                  906.7    909.6   2105.1   2345.8


 MOLE FRACTIONS

 CH4              0.02981  0.03654  0.03661  0.04558  0.04744
 *CO              0.22975  0.22367  0.22361  0.09072  0.04419
 *CO2             0.00533  0.00812  0.00814  0.04812  0.06033
 C2H4             0.00001  0.00001  0.00001  0.00000  0.00000
 C2H6             0.00001  0.00000  0.00000  0.00000  0.00000
 HCN              0.00021  0.00008  0.00008  0.00000  0.00000
 *H2              0.44469  0.43438  0.43427  0.36840  0.34357
 H2O              0.02474  0.02853  0.02857  0.08587  0.10890
 NH3              0.00074  0.00054  0.00054  0.00015  0.00009
 *N2              0.26469  0.26812  0.26816  0.27275  0.27370
 C(gr)            0.00000  0.00000  0.00000  0.08840  0.12179

  * THERMODYNAMIC PROPERTIES FITTED TO 20000.K

    PRODUCTS WHICH WERE CONSIDERED BUT WHOSE MOLE FRACTIONS
    WERE LESS THAN 5.000000E-06 FOR ALL ASSIGNED CONDITIONS

 *C              *CH             CH2             CH3             CH2OH          
 CH3O            CH3OH           CH3OOH          *CN             CNN            
 COOH            *C2             C2H             C2H2,acetylene  C2H2,vinylidene
 CH2CO,ketene    O(CH)2O         HO(CO)2OH       C2H3,vinyl      CH3CN          
 CH3CO,acetyl    C2H4O,ethylen-o CH3CHO,ethanal  CH3COOH         OHCH2COOH      
 C2H5            CH3N2CH3        C2H5OH          CH3OCH3         CH3O2CH3       
 CCN             CNC             OCCN            C2N2            C2O            
 *C3             C3H3,1-propynl  C3H3,2-propynl  C3H4,allene     C3H4,propyne   
 C3H4,cyclo-     C3H5,allyl      C3H6,propylene  C3H6,cyclo-     C3H6O,propylox 
 C3H6O,acetone   C3H6O,propanal  C3H7,n-propyl   C3H7,i-propyl   C3H8           
 C3H8O,1propanol C3H8O,2propanol CNCOCN          C3O2            *C4            
 C4H2,butadiyne  C4H4,1,3-cyclo- C4H6,butadiene  C4H6,1butyne    C4H6,2butyne   
 C4H6,cyclo-     C4H8,1-butene   C4H8,cis2-buten C4H8,tr2-butene C4H8,isobutene 
 C4H8,cyclo-     (CH3COOH)2      C4H9,n-butyl    C4H9,i-butyl    C4H9,s-butyl   
 C4H9,t-butyl    C4H10,n-butane  C4H10,isobutane C4N2            *C5            
 C5H6,1,3cyclo-  C5H8,cyclo-     C5H10,1-pentene C5H10,cyclo-    C5H11,pentyl   
 C5H11,t-pentyl  C5H12,n-pentane C5H12,i-pentane CH3C(CH3)2CH3   C6H2           
 C6H5,phenyl     C6H5O,phenoxy   C6H6            C6H5OH,phenol   C6H10,cyclo-   
 C6H12,1-hexene  C6H12,cyclo-    C6H13,n-hexyl   C6H14,n-hexane  C7H7,benzyl    
 C7H8            C7H8O,cresol-mx C7H14,1-heptene C7H15,n-heptyl  C7H16,n-heptane
 C7H16,2-methylh C8H8,styrene    C8H10,ethylbenz C8H16,1-octene  C8H17,n-octyl  
 C8H18,n-octane  C8H18,isooctane C9H19,n-nonyl   C10H8,naphthale C10H21,n-decyl 
 C12H9,o-bipheny C12H10,biphenyl *H              HCO             HCCN           
 HCCO            HNC             HNCO            HNO             HNO2           
 HNO3            HO2             HCHO,formaldehy HCOOH           H2O2           
 (HCOOH)2        *N              NCO             *NH             NH2            
 NH2OH           *NO             NO2             NO3             NCN            
 N2H2            NH2NO2          N2H4            N2O             N2O3           
 N2O4            N2O5            N3              N3H             *O             
 *OH             *O2             O3              H2O(cr)         H2O(L)         



