
 *******************************************************************************

         NASA-GLENN CHEMICAL EQUILIBRIUM PROGRAM CEA2, MAY 21, 2004
                   BY  BONNIE MCBRIDE AND SANFORD GORDON
      REFS: NASA RP-1311, PART I, 1994 AND NASA RP-1311, PART II, 1996

 *******************************************************************************



 prob rocket fac p,bar=15.61,ac/at=161.983471074,
 o/f=57.1968677794, pi/pe=1, eq
 react
 	oxid=O2(L) wt=100
 	fuel=PMMA  wt=100 t,k=293.15
 	h,kj/mol=-442.14  C 5 H 8 O 2
 end

 OPTIONS: TP=F  HP=F  SP=F  TV=F  UV=F  SV=F  DETN=F  SHOCK=F  REFL=F  INCD=F
 RKT=T  FROZ=F  EQL=T  IONS=F  SIUNIT=T  DEBUGF=F  SHKDBG=F  DETDBG=T  TRNSPT=F

 TRACE= 0.00E+00  S/R= 0.000000E+00  H/R= 0.000000E+00  U/R= 0.000000E+00

 Pc,BAR =    15.610000

 Pc/P =     1.0000

 SUBSONIC AREA RATIOS =

 SUPERSONIC AREA RATIOS =

 NFZ=  1  Mdot/Ac= 0.000000E+00  Ac/At= 1.619835E+02

    REACTANT          WT.FRAC   (ENERGY/R),K   TEMP,K  DENSITY
        EXPLODED FORMULA
 O: O2(L)            1.000000  -0.156101E+04    90.17  0.0000
          O  2.00000
 F: PMMA             1.000000  -0.531769E+05   293.15  0.0000
          C  5.00000  H  8.00000  O  2.00000

  SPECIES BEING CONSIDERED IN THIS SYSTEM
 (CONDENSED PHASE MAY HAVE NAME LISTED SEVERAL TIMES)
  LAST thermo.inp UPDATE:    9/09/04

  g 7/97  *C               tpis79  *CH              g 4/02  CH2            
  g 4/02  CH3              g11/00  CH2OH            g 7/00  CH3O           
  g 8/99  CH4              g 7/00  CH3OH            srd 01  CH3OOH         
  tpis79  *CO              g 9/99  *CO2             tpis91  COOH           
  tpis91  *C2              g 6/01  C2H              g 1/91  C2H2,acetylene 
  g 5/01  C2H2,vinylidene  g 4/02  CH2CO,ketene     g 3/02  O(CH)2O        
  srd 01  HO(CO)2OH        g 7/01  C2H3,vinyl       g 6/96  CH3CO,acetyl   
  g 1/00  C2H4             g 8/88  C2H4O,ethylen-o  g 8/88  CH3CHO,ethanal 
  g 6/00  CH3COOH          srd 01  OHCH2COOH        g 7/00  C2H5           
  g 7/00  C2H6             g 8/88  C2H5OH           g 7/00  CH3OCH3        
  srd 01  CH3O2CH3         g 8/00  C2O              tpis79  *C3            
  n 4/98  C3H3,1-propynl   n 4/98  C3H3,2-propynl   g 2/00  C3H4,allene    
  g 1/00  C3H4,propyne     g 5/90  C3H4,cyclo-      g 3/01  C3H5,allyl     
  g 2/00  C3H6,propylene   g 1/00  C3H6,cyclo-      g 6/01  C3H6O,propylox 
  g 6/97  C3H6O,acetone    g 1/02  C3H6O,propanal   g 7/01  C3H7,n-propyl  
  g 9/85  C3H7,i-propyl    g 2/00  C3H8             g 2/00  C3H8O,1propanol
  g 2/00  C3H8O,2propanol  g 7/88  C3O2             g tpis  *C4            
  g 7/01  C4H2,butadiyne   g 8/00  C4H4,1,3-cyclo-  n10/92  C4H6,butadiene 
  n10/93  C4H6,1butyne     n10/93  C4H6,2butyne     g 8/00  C4H6,cyclo-    
  n 4/88  C4H8,1-butene    n 4/88  C4H8,cis2-buten  n 4/88  C4H8,tr2-butene
  n 4/88  C4H8,isobutene   g 8/00  C4H8,cyclo-      g10/00  (CH3COOH)2     
  n10/84  C4H9,n-butyl     n10/84  C4H9,i-butyl     g 1/93  C4H9,s-butyl   
  g 1/93  C4H9,t-butyl     g12/00  C4H10,n-butane   g 8/00  C4H10,isobutane
  g 8/00  *C5              g 5/90  C5H6,1,3cyclo-   g 1/93  C5H8,cyclo-    
  n 4/87  C5H10,1-pentene  g 2/01  C5H10,cyclo-     n10/84  C5H11,pentyl   
  g 1/93  C5H11,t-pentyl   n10/85  C5H12,n-pentane  n10/85  C5H12,i-pentane
  n10/85  CH3C(CH3)2CH3    g 2/93  C6H2             g11/00  C6H5,phenyl    
  g 8/00  C6H5O,phenoxy    g 8/00  C6H6             g 8/00  C6H5OH,phenol  
  g 1/93  C6H10,cyclo-     n 4/87  C6H12,1-hexene   g 6/90  C6H12,cyclo-   
  n10/83  C6H13,n-hexyl    g 6/01  C6H14,n-hexane   g 7/01  C7H7,benzyl    
  g 1/93  C7H8             g12/00  C7H8O,cresol-mx  n 4/87  C7H14,1-heptene
  n10/83  C7H15,n-heptyl   n10/85  C7H16,n-heptane  n10/85  C7H16,2-methylh
  n 4/89  C8H8,styrene     n10/86  C8H10,ethylbenz  n 4/87  C8H16,1-octene 
  n10/83  C8H17,n-octyl    n 4/85  C8H18,n-octane   n 4/85  C8H18,isooctane
  n10/83  C9H19,n-nonyl    g 3/01  C10H8,naphthale  n10/83  C10H21,n-decyl 
  g 8/00  C12H9,o-bipheny  g 8/00  C12H10,biphenyl  g 6/97  *H             
  g 1/01  HCO              g 6/01  HCCO             g 4/02  HO2            
  tpis78  *H2              g 5/01  HCHO,formaldehy  g 6/01  HCOOH          
  g 8/89  H2O              g 6/99  H2O2             g 6/01  (HCOOH)2       
  g 5/97  *O               g 4/02  *OH              tpis89  *O2            
  g 8/01  O3               n 4/83  C(gr)            n 4/83  C(gr)          
  n 4/83  C(gr)            g11/99  H2O(cr)          g 8/01  H2O(L)         
  g 8/01  H2O(L)         

 O/F =  57.196868

                       EFFECTIVE FUEL     EFFECTIVE OXIDANT        MIXTURE
 ENTHALPY                  h(2)/R              h(1)/R               h0/R
 (KG-MOL)(K)/KG       -0.53115398E+03     -0.48783267E+02     -0.57071870E+02

 KG-FORM.WT./KG             bi(2)               bi(1)               b0i
  *O                   0.19976863E-01      0.62502344E-01      0.61771626E-01
  *C                   0.49942157E-01      0.00000000E+00      0.85815885E-03
  *H                   0.79907451E-01      0.00000000E+00      0.13730542E-02

 POINT ITN      T            O           C           H 
   1   31     329.530     -10.997    -148.210     -50.532
 ADD  H2O(L)         
   1    3     338.178     -10.999    -144.540     -49.568
   2    2     337.874     -11.012    -144.666     -49.607
 Pinf/Pt = 1.796581
   3    4     302.909     -11.286    -160.828     -55.309
 Pinf/Pt = 1.825738
   3    2     301.894     -11.294    -161.353     -55.495
 Pinf/Pt = 1.826854
   3    2     301.855     -11.294    -161.373     -55.503
 Pinf/Pt = 1.826903
   3    1     301.853     -11.294    -161.374     -55.503
   4    1     337.874     -11.012    -144.666     -49.607
   4    1     337.874     -11.012    -144.666     -49.607
   2    2     338.178     -10.999    -144.540     -49.568
 Pinf/Pt = 1.797167
   3    4     303.004     -11.273    -160.779     -55.298
 Pinf/Pt = 1.826460
   3    2     301.980     -11.281    -161.309     -55.486
 Pinf/Pt = 1.827578
   3    2     301.941     -11.281    -161.329     -55.493
 Pinf/Pt = 1.827627
   3    1     301.939     -11.281    -161.330     -55.493
   4    1     338.178     -10.999    -144.540     -49.568
   4    1     338.178     -10.999    -144.540     -49.568
 END OF CHAMBER ITERATIONS

 WARNING!!  ASSIGNED pip =   1.00000 IS NOT PERMITTED
 TO BE LESS THAN  Pinj/Pc =  1.00001. POINT OMITTED (ROCKET)





              THEORETICAL ROCKET PERFORMANCE ASSUMING EQUILIBRIUM

            COMPOSITION DURING EXPANSION FROM FINITE AREA COMBUSTOR

 Pin =   226.4 PSIA
 Ac/At =161.9835      Pinj/Pinf =  1.000005
 CASE =                

             REACTANT                    WT FRACTION      ENERGY      TEMP
                                          (SEE NOTE)     KJ/KG-MOL      K  
 OXIDANT     O2(L)                        1.0000000    -12979.000     90.170
 FUEL        PMMA                         1.0000000   -442140.000    293.150

 O/F=   57.19687  %FUEL=  1.718306  R,EQ.RATIO= 0.038899  PHI,EQ.RATIO= 0.033528

                 INJECTOR  COMB END  THROAT
 Pinj/P            1.0000   1.0000   1.8276
 P, BAR            15.610   15.610   8.5411
 T, K              338.18   338.18   301.94
 RHO, KG/CU M    1.7886 1 1.7886 1 1.1088 1
 H, KJ/KG         -474.52  -474.53  -524.07
 U, KJ/KG         -561.80  -561.80  -601.10
 G, KJ/KG        -2450.48 -2450.48 -2288.28
 S, KJ/(KG)(K)     5.8429   5.8429   5.8429

 M, (1/n)          32.218   32.218   32.590
 MW, MOL WT        32.021   32.021   32.021
 (dLV/dLP)t      -1.01623 -1.01623 -1.00465
 (dLV/dLT)p        1.2443   1.2443   1.0813
 Cp, KJ/(KG)(K)    1.8930   1.8930   1.3126
 GAMMAs            1.2420   1.2420   1.2863
 SON VEL,M/SEC      329.2    329.2    314.8
 MACH NUMBER        0.000    0.003    1.000

 PERFORMANCE PARAMETERS

 Ae/At                      203.24   1.0000
 CSTAR, M/SEC                447.3    447.3
 CF                         0.0021   0.7038
 Ivac, M/SEC               90899.3    559.5
 Isp, M/SEC                    1.0    314.8


 MOLE FRACTIONS

 *CO2             0.02748  0.02748  0.02748
 H2O              0.01587  0.01587  0.00455
 *O2              0.95054  0.95054  0.95054
 H2O(L)           0.00611  0.00611  0.01743

  * THERMODYNAMIC PROPERTIES FITTED TO 20000.K

    PRODUCTS WHICH WERE CONSIDERED BUT WHOSE MOLE FRACTIONS
    WERE LESS THAN 5.000000E-06 FOR ALL ASSIGNED CONDITIONS

 *C              *CH             CH2             CH3             CH2OH          
 CH3O            CH4             CH3OH           CH3OOH          *CO            
 COOH            *C2             C2H             C2H2,acetylene  C2H2,vinylidene
 CH2CO,ketene    O(CH)2O         HO(CO)2OH       C2H3,vinyl      CH3CO,acetyl   
 C2H4            C2H4O,ethylen-o CH3CHO,ethanal  CH3COOH         OHCH2COOH      
 C2H5            C2H6            C2H5OH          CH3OCH3         CH3O2CH3       
 C2O             *C3             C3H3,1-propynl  C3H3,2-propynl  C3H4,allene    
 C3H4,propyne    C3H4,cyclo-     C3H5,allyl      C3H6,propylene  C3H6,cyclo-    
 C3H6O,propylox  C3H6O,acetone   C3H6O,propanal  C3H7,n-propyl   C3H7,i-propyl  
 C3H8            C3H8O,1propanol C3H8O,2propanol C3O2            *C4            
 C4H2,butadiyne  C4H4,1,3-cyclo- C4H6,butadiene  C4H6,1butyne    C4H6,2butyne   
 C4H6,cyclo-     C4H8,1-butene   C4H8,cis2-buten C4H8,tr2-butene C4H8,isobutene 
 C4H8,cyclo-     (CH3COOH)2      C4H9,n-butyl    C4H9,i-butyl    C4H9,s-butyl   
 C4H9,t-butyl    C4H10,n-butane  C4H10,isobutane *C5             C5H6,1,3cyclo- 
 C5H8,cyclo-     C5H10,1-pentene C5H10,cyclo-    C5H11,pentyl    C5H11,t-pentyl 
 C5H12,n-pentane C5H12,i-pentane CH3C(CH3)2CH3   C6H2            C6H5,phenyl    
 C6H5O,phenoxy   C6H6            C6H5OH,phenol   C6H10,cyclo-    C6H12,1-hexene 
 C6H12,cyclo-    C6H13,n-hexyl   C6H14,n-hexane  C7H7,benzyl     C7H8           
 C7H8O,cresol-mx C7H14,1-heptene C7H15,n-heptyl  C7H16,n-heptane C7H16,2-methylh
 C8H8,styrene    C8H10,ethylbenz C8H16,1-octene  C8H17,n-octyl   C8H18,n-octane 
 C8H18,isooctane C9H19,n-nonyl   C10H8,naphthale C10H21,n-decyl  C12H9,o-bipheny
 C12H10,biphenyl *H              HCO             HCCO            HO2            
 *H2             HCHO,formaldehy HCOOH           H2O2            (HCOOH)2       
 *O              *OH             O3              C(gr)           H2O(cr)        

 NOTE. WEIGHT FRACTION OF FUEL IN TOTAL FUELS AND OF OXIDANT IN TOTAL OXIDANTS






 WARNING!!  ASSIGNED pip =   0.00000 IS NOT PERMITTED
 TO BE LESS THAN  Pinj/Pc =  1.00001. POINT OMITTED (ROCKET)





              THEORETICAL ROCKET PERFORMANCE ASSUMING EQUILIBRIUM

            COMPOSITION DURING EXPANSION FROM FINITE AREA COMBUSTOR

 Pin =   226.4 PSIA
 Ac/At =161.9835      Pinj/Pinf =  1.000005
 CASE =                

             REACTANT                    WT FRACTION      ENERGY      TEMP
                                          (SEE NOTE)     KJ/KG-MOL      K  
 OXIDANT     O2(L)                        1.0000000    -12979.000     90.170
 FUEL        PMMA                         1.0000000   -442140.000    293.150

 O/F=   57.19687  %FUEL=  1.718306  R,EQ.RATIO= 0.038899  PHI,EQ.RATIO= 0.033528

                 INJECTOR  COMB END  THROAT
 Pinj/P            1.0000   1.0000   1.8276
 P, BAR            15.610   15.610   8.5411
 T, K              338.18   338.18   301.94
 RHO, KG/CU M    1.7886 1 1.7886 1 1.1088 1
 H, KJ/KG         -474.52  -474.53  -524.07
 U, KJ/KG         -561.80  -561.80  -601.10
 G, KJ/KG        -2450.48 -2450.48 -2288.28
 S, KJ/(KG)(K)     5.8429   5.8429   5.8429

 M, (1/n)          32.218   32.218   32.590
 MW, MOL WT        32.021   32.021   32.021
 (dLV/dLP)t      -1.01623 -1.01623 -1.00465
 (dLV/dLT)p        1.2443   1.2443   1.0813
 Cp, KJ/(KG)(K)    1.8930   1.8930   1.3126
 GAMMAs            1.2420   1.2420   1.2863
 SON VEL,M/SEC      329.2    329.2    314.8
 MACH NUMBER        0.000    0.003    1.000

 PERFORMANCE PARAMETERS

 Ae/At                      203.24   1.0000
 CSTAR, M/SEC                447.3    447.3
 CF                         0.0021   0.7038
 Ivac, M/SEC               90899.3    559.5
 Isp, M/SEC                    1.0    314.8


 MOLE FRACTIONS

 *CO2             0.02748  0.02748  0.02748
 H2O              0.01587  0.01587  0.00455
 *O2              0.95054  0.95054  0.95054
 H2O(L)           0.00611  0.00611  0.01743

  * THERMODYNAMIC PROPERTIES FITTED TO 20000.K

    PRODUCTS WHICH WERE CONSIDERED BUT WHOSE MOLE FRACTIONS
    WERE LESS THAN 5.000000E-06 FOR ALL ASSIGNED CONDITIONS

 *C              *CH             CH2             CH3             CH2OH          
 CH3O            CH4             CH3OH           CH3OOH          *CO            
 COOH            *C2             C2H             C2H2,acetylene  C2H2,vinylidene
 CH2CO,ketene    O(CH)2O         HO(CO)2OH       C2H3,vinyl      CH3CO,acetyl   
 C2H4            C2H4O,ethylen-o CH3CHO,ethanal  CH3COOH         OHCH2COOH      
 C2H5            C2H6            C2H5OH          CH3OCH3         CH3O2CH3       
 C2O             *C3             C3H3,1-propynl  C3H3,2-propynl  C3H4,allene    
 C3H4,propyne    C3H4,cyclo-     C3H5,allyl      C3H6,propylene  C3H6,cyclo-    
 C3H6O,propylox  C3H6O,acetone   C3H6O,propanal  C3H7,n-propyl   C3H7,i-propyl  
 C3H8            C3H8O,1propanol C3H8O,2propanol C3O2            *C4            
 C4H2,butadiyne  C4H4,1,3-cyclo- C4H6,butadiene  C4H6,1butyne    C4H6,2butyne   
 C4H6,cyclo-     C4H8,1-butene   C4H8,cis2-buten C4H8,tr2-butene C4H8,isobutene 
 C4H8,cyclo-     (CH3COOH)2      C4H9,n-butyl    C4H9,i-butyl    C4H9,s-butyl   
 C4H9,t-butyl    C4H10,n-butane  C4H10,isobutane *C5             C5H6,1,3cyclo- 
 C5H8,cyclo-     C5H10,1-pentene C5H10,cyclo-    C5H11,pentyl    C5H11,t-pentyl 
 C5H12,n-pentane C5H12,i-pentane CH3C(CH3)2CH3   C6H2            C6H5,phenyl    
 C6H5O,phenoxy   C6H6            C6H5OH,phenol   C6H10,cyclo-    C6H12,1-hexene 
 C6H12,cyclo-    C6H13,n-hexyl   C6H14,n-hexane  C7H7,benzyl     C7H8           
 C7H8O,cresol-mx C7H14,1-heptene C7H15,n-heptyl  C7H16,n-heptane C7H16,2-methylh
 C8H8,styrene    C8H10,ethylbenz C8H16,1-octene  C8H17,n-octyl   C8H18,n-octane 
 C8H18,isooctane C9H19,n-nonyl   C10H8,naphthale C10H21,n-decyl  C12H9,o-bipheny
 C12H10,biphenyl *H              HCO             HCCO            HO2            
 *H2             HCHO,formaldehy HCOOH           H2O2            (HCOOH)2       
 *O              *OH             O3              C(gr)           H2O(cr)        

 NOTE. WEIGHT FRACTION OF FUEL IN TOTAL FUELS AND OF OXIDANT IN TOTAL OXIDANTS






 WARNING!!  ASSIGNED pip =   0.00000 IS NOT PERMITTED
 TO BE LESS THAN  Pinj/Pc =  1.00001. POINT OMITTED (ROCKET)





              THEORETICAL ROCKET PERFORMANCE ASSUMING EQUILIBRIUM

            COMPOSITION DURING EXPANSION FROM FINITE AREA COMBUSTOR

 Pin =   226.4 PSIA
 Ac/At =161.9835      Pinj/Pinf =  1.000005
 CASE =                

             REACTANT                    WT FRACTION      ENERGY      TEMP
                                          (SEE NOTE)     KJ/KG-MOL      K  
 OXIDANT     O2(L)                        1.0000000    -12979.000     90.170
 FUEL        PMMA                         1.0000000   -442140.000    293.150

 O/F=   57.19687  %FUEL=  1.718306  R,EQ.RATIO= 0.038899  PHI,EQ.RATIO= 0.033528

                 INJECTOR  COMB END  THROAT
 Pinj/P            1.0000   1.0000   1.8276
 P, BAR            15.610   15.610   8.5411
 T, K              338.18   338.18   301.94
 RHO, KG/CU M    1.7886 1 1.7886 1 1.1088 1
 H, KJ/KG         -474.52  -474.53  -524.07
 U, KJ/KG         -561.80  -561.80  -601.10
 G, KJ/KG        -2450.48 -2450.48 -2288.28
 S, KJ/(KG)(K)     5.8429   5.8429   5.8429

 M, (1/n)          32.218   32.218   32.590
 MW, MOL WT        32.021   32.021   32.021
 (dLV/dLP)t      -1.01623 -1.01623 -1.00465
 (dLV/dLT)p        1.2443   1.2443   1.0813
 Cp, KJ/(KG)(K)    1.8930   1.8930   1.3126
 GAMMAs            1.2420   1.2420   1.2863
 SON VEL,M/SEC      329.2    329.2    314.8
 MACH NUMBER        0.000    0.003    1.000

 PERFORMANCE PARAMETERS

 Ae/At                      203.24   1.0000
 CSTAR, M/SEC                447.3    447.3
 CF                         0.0021   0.7038
 Ivac, M/SEC               90899.3    559.5
 Isp, M/SEC                    1.0    314.8


 MOLE FRACTIONS

 *CO2             0.02748  0.02748  0.02748
 H2O              0.01587  0.01587  0.00455
 *O2              0.95054  0.95054  0.95054
 H2O(L)           0.00611  0.00611  0.01743

  * THERMODYNAMIC PROPERTIES FITTED TO 20000.K

    PRODUCTS WHICH WERE CONSIDERED BUT WHOSE MOLE FRACTIONS
    WERE LESS THAN 5.000000E-06 FOR ALL ASSIGNED CONDITIONS

 *C              *CH             CH2             CH3             CH2OH          
 CH3O            CH4             CH3OH           CH3OOH          *CO            
 COOH            *C2             C2H             C2H2,acetylene  C2H2,vinylidene
 CH2CO,ketene    O(CH)2O         HO(CO)2OH       C2H3,vinyl      CH3CO,acetyl   
 C2H4            C2H4O,ethylen-o CH3CHO,ethanal  CH3COOH         OHCH2COOH      
 C2H5            C2H6            C2H5OH          CH3OCH3         CH3O2CH3       
 C2O             *C3             C3H3,1-propynl  C3H3,2-propynl  C3H4,allene    
 C3H4,propyne    C3H4,cyclo-     C3H5,allyl      C3H6,propylene  C3H6,cyclo-    
 C3H6O,propylox  C3H6O,acetone   C3H6O,propanal  C3H7,n-propyl   C3H7,i-propyl  
 C3H8            C3H8O,1propanol C3H8O,2propanol C3O2            *C4            
 C4H2,butadiyne  C4H4,1,3-cyclo- C4H6,butadiene  C4H6,1butyne    C4H6,2butyne   
 C4H6,cyclo-     C4H8,1-butene   C4H8,cis2-buten C4H8,tr2-butene C4H8,isobutene 
 C4H8,cyclo-     (CH3COOH)2      C4H9,n-butyl    C4H9,i-butyl    C4H9,s-butyl   
 C4H9,t-butyl    C4H10,n-butane  C4H10,isobutane *C5             C5H6,1,3cyclo- 
 C5H8,cyclo-     C5H10,1-pentene C5H10,cyclo-    C5H11,pentyl    C5H11,t-pentyl 
 C5H12,n-pentane C5H12,i-pentane CH3C(CH3)2CH3   C6H2            C6H5,phenyl    
 C6H5O,phenoxy   C6H6            C6H5OH,phenol   C6H10,cyclo-    C6H12,1-hexene 
 C6H12,cyclo-    C6H13,n-hexyl   C6H14,n-hexane  C7H7,benzyl     C7H8           
 C7H8O,cresol-mx C7H14,1-heptene C7H15,n-heptyl  C7H16,n-heptane C7H16,2-methylh
 C8H8,styrene    C8H10,ethylbenz C8H16,1-octene  C8H17,n-octyl   C8H18,n-octane 
 C8H18,isooctane C9H19,n-nonyl   C10H8,naphthale C10H21,n-decyl  C12H9,o-bipheny
 C12H10,biphenyl *H              HCO             HCCO            HO2            
 *H2             HCHO,formaldehy HCOOH           H2O2            (HCOOH)2       
 *O              *OH             O3              C(gr)           H2O(cr)        

 NOTE. WEIGHT FRACTION OF FUEL IN TOTAL FUELS AND OF OXIDANT IN TOTAL OXIDANTS






 WARNING!!  ASSIGNED pip =   0.00000 IS NOT PERMITTED
 TO BE LESS THAN  Pinj/Pc =  1.00001. POINT OMITTED (ROCKET)





              THEORETICAL ROCKET PERFORMANCE ASSUMING EQUILIBRIUM

            COMPOSITION DURING EXPANSION FROM FINITE AREA COMBUSTOR

 Pin =   226.4 PSIA
 Ac/At =161.9835      Pinj/Pinf =  1.000005
 CASE =                

             REACTANT                    WT FRACTION      ENERGY      TEMP
                                          (SEE NOTE)     KJ/KG-MOL      K  
 OXIDANT     O2(L)                        1.0000000    -12979.000     90.170
 FUEL        PMMA                         1.0000000   -442140.000    293.150

 O/F=   57.19687  %FUEL=  1.718306  R,EQ.RATIO= 0.038899  PHI,EQ.RATIO= 0.033528

                 INJECTOR  COMB END  THROAT
 Pinj/P            1.0000   1.0000   1.8276
 P, BAR            15.610   15.610   8.5411
 T, K              338.18   338.18   301.94
 RHO, KG/CU M    1.7886 1 1.7886 1 1.1088 1
 H, KJ/KG         -474.52  -474.53  -524.07
 U, KJ/KG         -561.80  -561.80  -601.10
 G, KJ/KG        -2450.48 -2450.48 -2288.28
 S, KJ/(KG)(K)     5.8429   5.8429   5.8429

 M, (1/n)          32.218   32.218   32.590
 MW, MOL WT        32.021   32.021   32.021
 (dLV/dLP)t      -1.01623 -1.01623 -1.00465
 (dLV/dLT)p        1.2443   1.2443   1.0813
 Cp, KJ/(KG)(K)    1.8930   1.8930   1.3126
 GAMMAs            1.2420   1.2420   1.2863
 SON VEL,M/SEC      329.2    329.2    314.8
 MACH NUMBER        0.000    0.003    1.000

 PERFORMANCE PARAMETERS

 Ae/At                      203.24   1.0000
 CSTAR, M/SEC                447.3    447.3
 CF                         0.0021   0.7038
 Ivac, M/SEC               90899.3    559.5
 Isp, M/SEC                    1.0    314.8


 MOLE FRACTIONS

 *CO2             0.02748  0.02748  0.02748
 H2O              0.01587  0.01587  0.00455
 *O2              0.95054  0.95054  0.95054
 H2O(L)           0.00611  0.00611  0.01743

  * THERMODYNAMIC PROPERTIES FITTED TO 20000.K

    PRODUCTS WHICH WERE CONSIDERED BUT WHOSE MOLE FRACTIONS
    WERE LESS THAN 5.000000E-06 FOR ALL ASSIGNED CONDITIONS

 *C              *CH             CH2             CH3             CH2OH          
 CH3O            CH4             CH3OH           CH3OOH          *CO            
 COOH            *C2             C2H             C2H2,acetylene  C2H2,vinylidene
 CH2CO,ketene    O(CH)2O         HO(CO)2OH       C2H3,vinyl      CH3CO,acetyl   
 C2H4            C2H4O,ethylen-o CH3CHO,ethanal  CH3COOH         OHCH2COOH      
 C2H5            C2H6            C2H5OH          CH3OCH3         CH3O2CH3       
 C2O             *C3             C3H3,1-propynl  C3H3,2-propynl  C3H4,allene    
 C3H4,propyne    C3H4,cyclo-     C3H5,allyl      C3H6,propylene  C3H6,cyclo-    
 C3H6O,propylox  C3H6O,acetone   C3H6O,propanal  C3H7,n-propyl   C3H7,i-propyl  
 C3H8            C3H8O,1propanol C3H8O,2propanol C3O2            *C4            
 C4H2,butadiyne  C4H4,1,3-cyclo- C4H6,butadiene  C4H6,1butyne    C4H6,2butyne   
 C4H6,cyclo-     C4H8,1-butene   C4H8,cis2-buten C4H8,tr2-butene C4H8,isobutene 
 C4H8,cyclo-     (CH3COOH)2      C4H9,n-butyl    C4H9,i-butyl    C4H9,s-butyl   
 C4H9,t-butyl    C4H10,n-butane  C4H10,isobutane *C5             C5H6,1,3cyclo- 
 C5H8,cyclo-     C5H10,1-pentene C5H10,cyclo-    C5H11,pentyl    C5H11,t-pentyl 
 C5H12,n-pentane C5H12,i-pentane CH3C(CH3)2CH3   C6H2            C6H5,phenyl    
 C6H5O,phenoxy   C6H6            C6H5OH,phenol   C6H10,cyclo-    C6H12,1-hexene 
 C6H12,cyclo-    C6H13,n-hexyl   C6H14,n-hexane  C7H7,benzyl     C7H8           
 C7H8O,cresol-mx C7H14,1-heptene C7H15,n-heptyl  C7H16,n-heptane C7H16,2-methylh
 C8H8,styrene    C8H10,ethylbenz C8H16,1-octene  C8H17,n-octyl   C8H18,n-octane 
 C8H18,isooctane C9H19,n-nonyl   C10H8,naphthale C10H21,n-decyl  C12H9,o-bipheny
 C12H10,biphenyl *H              HCO             HCCO            HO2            
 *H2             HCHO,formaldehy HCOOH           H2O2            (HCOOH)2       
 *O              *OH             O3              C(gr)           H2O(cr)        

 NOTE. WEIGHT FRACTION OF FUEL IN TOTAL FUELS AND OF OXIDANT IN TOTAL OXIDANTS






 WARNING!!  ASSIGNED pip =   0.00000 IS NOT PERMITTED
 TO BE LESS THAN  Pinj/Pc =  1.00001. POINT OMITTED (ROCKET)





              THEORETICAL ROCKET PERFORMANCE ASSUMING EQUILIBRIUM

            COMPOSITION DURING EXPANSION FROM FINITE AREA COMBUSTOR

 Pin =   226.4 PSIA
 Ac/At =161.9835      Pinj/Pinf =  1.000005
 CASE =                

             REACTANT                    WT FRACTION      ENERGY      TEMP
                                          (SEE NOTE)     KJ/KG-MOL      K  
 OXIDANT     O2(L)                        1.0000000    -12979.000     90.170
 FUEL        PMMA                         1.0000000   -442140.000    293.150

 O/F=   57.19687  %FUEL=  1.718306  R,EQ.RATIO= 0.038899  PHI,EQ.RATIO= 0.033528

                 INJECTOR  COMB END  THROAT
 Pinj/P            1.0000   1.0000   1.8276
 P, BAR            15.610   15.610   8.5411
 T, K              338.18   338.18   301.94
 RHO, KG/CU M    1.7886 1 1.7886 1 1.1088 1
 H, KJ/KG         -474.52  -474.53  -524.07
 U, KJ/KG         -561.80  -561.80  -601.10
 G, KJ/KG        -2450.48 -2450.48 -2288.28
 S, KJ/(KG)(K)     5.8429   5.8429   5.8429

 M, (1/n)          32.218   32.218   32.590
 MW, MOL WT        32.021   32.021   32.021
 (dLV/dLP)t      -1.01623 -1.01623 -1.00465
 (dLV/dLT)p        1.2443   1.2443   1.0813
 Cp, KJ/(KG)(K)    1.8930   1.8930   1.3126
 GAMMAs            1.2420   1.2420   1.2863
 SON VEL,M/SEC      329.2    329.2    314.8
 MACH NUMBER        0.000    0.003    1.000

 PERFORMANCE PARAMETERS

 Ae/At                      203.24   1.0000
 CSTAR, M/SEC                447.3    447.3
 CF                         0.0021   0.7038
 Ivac, M/SEC               90899.3    559.5
 Isp, M/SEC                    1.0    314.8


 MOLE FRACTIONS

 *CO2             0.02748  0.02748  0.02748
 H2O              0.01587  0.01587  0.00455
 *O2              0.95054  0.95054  0.95054
 H2O(L)           0.00611  0.00611  0.01743

  * THERMODYNAMIC PROPERTIES FITTED TO 20000.K

    PRODUCTS WHICH WERE CONSIDERED BUT WHOSE MOLE FRACTIONS
    WERE LESS THAN 5.000000E-06 FOR ALL ASSIGNED CONDITIONS

 *C              *CH             CH2             CH3             CH2OH          
 CH3O            CH4             CH3OH           CH3OOH          *CO            
 COOH            *C2             C2H             C2H2,acetylene  C2H2,vinylidene
 CH2CO,ketene    O(CH)2O         HO(CO)2OH       C2H3,vinyl      CH3CO,acetyl   
 C2H4            C2H4O,ethylen-o CH3CHO,ethanal  CH3COOH         OHCH2COOH      
 C2H5            C2H6            C2H5OH          CH3OCH3         CH3O2CH3       
 C2O             *C3             C3H3,1-propynl  C3H3,2-propynl  C3H4,allene    
 C3H4,propyne    C3H4,cyclo-     C3H5,allyl      C3H6,propylene  C3H6,cyclo-    
 C3H6O,propylox  C3H6O,acetone   C3H6O,propanal  C3H7,n-propyl   C3H7,i-propyl  
 C3H8            C3H8O,1propanol C3H8O,2propanol C3O2            *C4            
 C4H2,butadiyne  C4H4,1,3-cyclo- C4H6,butadiene  C4H6,1butyne    C4H6,2butyne   
 C4H6,cyclo-     C4H8,1-butene   C4H8,cis2-buten C4H8,tr2-butene C4H8,isobutene 
 C4H8,cyclo-     (CH3COOH)2      C4H9,n-butyl    C4H9,i-butyl    C4H9,s-butyl   
 C4H9,t-butyl    C4H10,n-butane  C4H10,isobutane *C5             C5H6,1,3cyclo- 
 C5H8,cyclo-     C5H10,1-pentene C5H10,cyclo-    C5H11,pentyl    C5H11,t-pentyl 
 C5H12,n-pentane C5H12,i-pentane CH3C(CH3)2CH3   C6H2            C6H5,phenyl    
 C6H5O,phenoxy   C6H6            C6H5OH,phenol   C6H10,cyclo-    C6H12,1-hexene 
 C6H12,cyclo-    C6H13,n-hexyl   C6H14,n-hexane  C7H7,benzyl     C7H8           
 C7H8O,cresol-mx C7H14,1-heptene C7H15,n-heptyl  C7H16,n-heptane C7H16,2-methylh
 C8H8,styrene    C8H10,ethylbenz C8H16,1-octene  C8H17,n-octyl   C8H18,n-octane 
 C8H18,isooctane C9H19,n-nonyl   C10H8,naphthale C10H21,n-decyl  C12H9,o-bipheny
 C12H10,biphenyl *H              HCO             HCCO            HO2            
 *H2             HCHO,formaldehy HCOOH           H2O2            (HCOOH)2       
 *O              *OH             O3              C(gr)           H2O(cr)        

 NOTE. WEIGHT FRACTION OF FUEL IN TOTAL FUELS AND OF OXIDANT IN TOTAL OXIDANTS






 WARNING!!  ASSIGNED pip =   0.00000 IS NOT PERMITTED
 TO BE LESS THAN  Pinj/Pc =  1.00001. POINT OMITTED (ROCKET)





              THEORETICAL ROCKET PERFORMANCE ASSUMING EQUILIBRIUM

            COMPOSITION DURING EXPANSION FROM FINITE AREA COMBUSTOR

 Pin =   226.4 PSIA
 Ac/At =161.9835      Pinj/Pinf =  1.000005
 CASE =                

             REACTANT                    WT FRACTION      ENERGY      TEMP
                                          (SEE NOTE)     KJ/KG-MOL      K  
 OXIDANT     O2(L)                        1.0000000    -12979.000     90.170
 FUEL        PMMA                         1.0000000   -442140.000    293.150

 O/F=   57.19687  %FUEL=  1.718306  R,EQ.RATIO= 0.038899  PHI,EQ.RATIO= 0.033528

                 INJECTOR  COMB END  THROAT
 Pinj/P            1.0000   1.0000   1.8276
 P, BAR            15.610   15.610   8.5411
 T, K              338.18   338.18   301.94
 RHO, KG/CU M    1.7886 1 1.7886 1 1.1088 1
 H, KJ/KG         -474.52  -474.53  -524.07
 U, KJ/KG         -561.80  -561.80  -601.10
 G, KJ/KG        -2450.48 -2450.48 -2288.28
 S, KJ/(KG)(K)     5.8429   5.8429   5.8429

 M, (1/n)          32.218   32.218   32.590
 MW, MOL WT        32.021   32.021   32.021
 (dLV/dLP)t      -1.01623 -1.01623 -1.00465
 (dLV/dLT)p        1.2443   1.2443   1.0813
 Cp, KJ/(KG)(K)    1.8930   1.8930   1.3126
 GAMMAs            1.2420   1.2420   1.2863
 SON VEL,M/SEC      329.2    329.2    314.8
 MACH NUMBER        0.000    0.003    1.000

 PERFORMANCE PARAMETERS

 Ae/At                      203.24   1.0000
 CSTAR, M/SEC                447.3    447.3
 CF                         0.0021   0.7038
 Ivac, M/SEC               90899.3    559.5
 Isp, M/SEC                    1.0    314.8


 MOLE FRACTIONS

 *CO2             0.02748  0.02748  0.02748
 H2O              0.01587  0.01587  0.00455
 *O2              0.95054  0.95054  0.95054
 H2O(L)           0.00611  0.00611  0.01743

  * THERMODYNAMIC PROPERTIES FITTED TO 20000.K

    PRODUCTS WHICH WERE CONSIDERED BUT WHOSE MOLE FRACTIONS
    WERE LESS THAN 5.000000E-06 FOR ALL ASSIGNED CONDITIONS

 *C              *CH             CH2             CH3             CH2OH          
 CH3O            CH4             CH3OH           CH3OOH          *CO            
 COOH            *C2             C2H             C2H2,acetylene  C2H2,vinylidene
 CH2CO,ketene    O(CH)2O         HO(CO)2OH       C2H3,vinyl      CH3CO,acetyl   
 C2H4            C2H4O,ethylen-o CH3CHO,ethanal  CH3COOH         OHCH2COOH      
 C2H5            C2H6            C2H5OH          CH3OCH3         CH3O2CH3       
 C2O             *C3             C3H3,1-propynl  C3H3,2-propynl  C3H4,allene    
 C3H4,propyne    C3H4,cyclo-     C3H5,allyl      C3H6,propylene  C3H6,cyclo-    
 C3H6O,propylox  C3H6O,acetone   C3H6O,propanal  C3H7,n-propyl   C3H7,i-propyl  
 C3H8            C3H8O,1propanol C3H8O,2propanol C3O2            *C4            
 C4H2,butadiyne  C4H4,1,3-cyclo- C4H6,butadiene  C4H6,1butyne    C4H6,2butyne   
 C4H6,cyclo-     C4H8,1-butene   C4H8,cis2-buten C4H8,tr2-butene C4H8,isobutene 
 C4H8,cyclo-     (CH3COOH)2      C4H9,n-butyl    C4H9,i-butyl    C4H9,s-butyl   
 C4H9,t-butyl    C4H10,n-butane  C4H10,isobutane *C5             C5H6,1,3cyclo- 
 C5H8,cyclo-     C5H10,1-pentene C5H10,cyclo-    C5H11,pentyl    C5H11,t-pentyl 
 C5H12,n-pentane C5H12,i-pentane CH3C(CH3)2CH3   C6H2            C6H5,phenyl    
 C6H5O,phenoxy   C6H6            C6H5OH,phenol   C6H10,cyclo-    C6H12,1-hexene 
 C6H12,cyclo-    C6H13,n-hexyl   C6H14,n-hexane  C7H7,benzyl     C7H8           
 C7H8O,cresol-mx C7H14,1-heptene C7H15,n-heptyl  C7H16,n-heptane C7H16,2-methylh
 C8H8,styrene    C8H10,ethylbenz C8H16,1-octene  C8H17,n-octyl   C8H18,n-octane 
 C8H18,isooctane C9H19,n-nonyl   C10H8,naphthale C10H21,n-decyl  C12H9,o-bipheny
 C12H10,biphenyl *H              HCO             HCCO            HO2            
 *H2             HCHO,formaldehy HCOOH           H2O2            (HCOOH)2       
 *O              *OH             O3              C(gr)           H2O(cr)        

 NOTE. WEIGHT FRACTION OF FUEL IN TOTAL FUELS AND OF OXIDANT IN TOTAL OXIDANTS






 WARNING!!  ASSIGNED pip =   0.00000 IS NOT PERMITTED
 TO BE LESS THAN  Pinj/Pc =  1.00001. POINT OMITTED (ROCKET)





              THEORETICAL ROCKET PERFORMANCE ASSUMING EQUILIBRIUM

            COMPOSITION DURING EXPANSION FROM FINITE AREA COMBUSTOR

 Pin =   226.4 PSIA
 Ac/At =161.9835      Pinj/Pinf =  1.000005
 CASE =                

             REACTANT                    WT FRACTION      ENERGY      TEMP
                                          (SEE NOTE)     KJ/KG-MOL      K  
 OXIDANT     O2(L)                        1.0000000    -12979.000     90.170
 FUEL        PMMA                         1.0000000   -442140.000    293.150

 O/F=   57.19687  %FUEL=  1.718306  R,EQ.RATIO= 0.038899  PHI,EQ.RATIO= 0.033528

                 INJECTOR  COMB END  THROAT
 Pinj/P            1.0000   1.0000   1.8276
 P, BAR            15.610   15.610   8.5411
 T, K              338.18   338.18   301.94
 RHO, KG/CU M    1.7886 1 1.7886 1 1.1088 1
 H, KJ/KG         -474.52  -474.53  -524.07
 U, KJ/KG         -561.80  -561.80  -601.10
 G, KJ/KG        -2450.48 -2450.48 -2288.28
 S, KJ/(KG)(K)     5.8429   5.8429   5.8429

 M, (1/n)          32.218   32.218   32.590
 MW, MOL WT        32.021   32.021   32.021
 (dLV/dLP)t      -1.01623 -1.01623 -1.00465
 (dLV/dLT)p        1.2443   1.2443   1.0813
 Cp, KJ/(KG)(K)    1.8930   1.8930   1.3126
 GAMMAs            1.2420   1.2420   1.2863
 SON VEL,M/SEC      329.2    329.2    314.8
 MACH NUMBER        0.000    0.003    1.000

 PERFORMANCE PARAMETERS

 Ae/At                      203.24   1.0000
 CSTAR, M/SEC                447.3    447.3
 CF                         0.0021   0.7038
 Ivac, M/SEC               90899.3    559.5
 Isp, M/SEC                    1.0    314.8


 MOLE FRACTIONS

 *CO2             0.02748  0.02748  0.02748
 H2O              0.01587  0.01587  0.00455
 *O2              0.95054  0.95054  0.95054
 H2O(L)           0.00611  0.00611  0.01743

  * THERMODYNAMIC PROPERTIES FITTED TO 20000.K

    PRODUCTS WHICH WERE CONSIDERED BUT WHOSE MOLE FRACTIONS
    WERE LESS THAN 5.000000E-06 FOR ALL ASSIGNED CONDITIONS

 *C              *CH             CH2             CH3             CH2OH          
 CH3O            CH4             CH3OH           CH3OOH          *CO            
 COOH            *C2             C2H             C2H2,acetylene  C2H2,vinylidene
 CH2CO,ketene    O(CH)2O         HO(CO)2OH       C2H3,vinyl      CH3CO,acetyl   
 C2H4            C2H4O,ethylen-o CH3CHO,ethanal  CH3COOH         OHCH2COOH      
 C2H5            C2H6            C2H5OH          CH3OCH3         CH3O2CH3       
 C2O             *C3             C3H3,1-propynl  C3H3,2-propynl  C3H4,allene    
 C3H4,propyne    C3H4,cyclo-     C3H5,allyl      C3H6,propylene  C3H6,cyclo-    
 C3H6O,propylox  C3H6O,acetone   C3H6O,propanal  C3H7,n-propyl   C3H7,i-propyl  
 C3H8            C3H8O,1propanol C3H8O,2propanol C3O2            *C4            
 C4H2,butadiyne  C4H4,1,3-cyclo- C4H6,butadiene  C4H6,1butyne    C4H6,2butyne   
 C4H6,cyclo-     C4H8,1-butene   C4H8,cis2-buten C4H8,tr2-butene C4H8,isobutene 
 C4H8,cyclo-     (CH3COOH)2      C4H9,n-butyl    C4H9,i-butyl    C4H9,s-butyl   
 C4H9,t-butyl    C4H10,n-butane  C4H10,isobutane *C5             C5H6,1,3cyclo- 
 C5H8,cyclo-     C5H10,1-pentene C5H10,cyclo-    C5H11,pentyl    C5H11,t-pentyl 
 C5H12,n-pentane C5H12,i-pentane CH3C(CH3)2CH3   C6H2            C6H5,phenyl    
 C6H5O,phenoxy   C6H6            C6H5OH,phenol   C6H10,cyclo-    C6H12,1-hexene 
 C6H12,cyclo-    C6H13,n-hexyl   C6H14,n-hexane  C7H7,benzyl     C7H8           
 C7H8O,cresol-mx C7H14,1-heptene C7H15,n-heptyl  C7H16,n-heptane C7H16,2-methylh
 C8H8,styrene    C8H10,ethylbenz C8H16,1-octene  C8H17,n-octyl   C8H18,n-octane 
 C8H18,isooctane C9H19,n-nonyl   C10H8,naphthale C10H21,n-decyl  C12H9,o-bipheny
 C12H10,biphenyl *H              HCO             HCCO            HO2            
 *H2             HCHO,formaldehy HCOOH           H2O2            (HCOOH)2       
 *O              *OH             O3              C(gr)           H2O(cr)        

 NOTE. WEIGHT FRACTION OF FUEL IN TOTAL FUELS AND OF OXIDANT IN TOTAL OXIDANTS






 WARNING!!  ASSIGNED pip =   0.00000 IS NOT PERMITTED
 TO BE LESS THAN  Pinj/Pc =  1.00001. POINT OMITTED (ROCKET)





              THEORETICAL ROCKET PERFORMANCE ASSUMING EQUILIBRIUM

            COMPOSITION DURING EXPANSION FROM FINITE AREA COMBUSTOR

 Pin =   226.4 PSIA
 Ac/At =161.9835      Pinj/Pinf =  1.000005
 CASE =                

             REACTANT                    WT FRACTION      ENERGY      TEMP
                                          (SEE NOTE)     KJ/KG-MOL      K  
 OXIDANT     O2(L)                        1.0000000    -12979.000     90.170
 FUEL        PMMA                         1.0000000   -442140.000    293.150

 O/F=   57.19687  %FUEL=  1.718306  R,EQ.RATIO= 0.038899  PHI,EQ.RATIO= 0.033528

                 INJECTOR  COMB END  THROAT
 Pinj/P            1.0000   1.0000   1.8276
 P, BAR            15.610   15.610   8.5411
 T, K              338.18   338.18   301.94
 RHO, KG/CU M    1.7886 1 1.7886 1 1.1088 1
 H, KJ/KG         -474.52  -474.53  -524.07
 U, KJ/KG         -561.80  -561.80  -601.10
 G, KJ/KG        -2450.48 -2450.48 -2288.28
 S, KJ/(KG)(K)     5.8429   5.8429   5.8429

 M, (1/n)          32.218   32.218   32.590
 MW, MOL WT        32.021   32.021   32.021
 (dLV/dLP)t      -1.01623 -1.01623 -1.00465
 (dLV/dLT)p        1.2443   1.2443   1.0813
 Cp, KJ/(KG)(K)    1.8930   1.8930   1.3126
 GAMMAs            1.2420   1.2420   1.2863
 SON VEL,M/SEC      329.2    329.2    314.8
 MACH NUMBER        0.000    0.003    1.000

 PERFORMANCE PARAMETERS

 Ae/At                      203.24   1.0000
 CSTAR, M/SEC                447.3    447.3
 CF                         0.0021   0.7038
 Ivac, M/SEC               90899.3    559.5
 Isp, M/SEC                    1.0    314.8


 MOLE FRACTIONS

 *CO2             0.02748  0.02748  0.02748
 H2O              0.01587  0.01587  0.00455
 *O2              0.95054  0.95054  0.95054
 H2O(L)           0.00611  0.00611  0.01743

  * THERMODYNAMIC PROPERTIES FITTED TO 20000.K

    PRODUCTS WHICH WERE CONSIDERED BUT WHOSE MOLE FRACTIONS
    WERE LESS THAN 5.000000E-06 FOR ALL ASSIGNED CONDITIONS

 *C              *CH             CH2             CH3             CH2OH          
 CH3O            CH4             CH3OH           CH3OOH          *CO            
 COOH            *C2             C2H             C2H2,acetylene  C2H2,vinylidene
 CH2CO,ketene    O(CH)2O         HO(CO)2OH       C2H3,vinyl      CH3CO,acetyl   
 C2H4            C2H4O,ethylen-o CH3CHO,ethanal  CH3COOH         OHCH2COOH      
 C2H5            C2H6            C2H5OH          CH3OCH3         CH3O2CH3       
 C2O             *C3             C3H3,1-propynl  C3H3,2-propynl  C3H4,allene    
 C3H4,propyne    C3H4,cyclo-     C3H5,allyl      C3H6,propylene  C3H6,cyclo-    
 C3H6O,propylox  C3H6O,acetone   C3H6O,propanal  C3H7,n-propyl   C3H7,i-propyl  
 C3H8            C3H8O,1propanol C3H8O,2propanol C3O2            *C4            
 C4H2,butadiyne  C4H4,1,3-cyclo- C4H6,butadiene  C4H6,1butyne    C4H6,2butyne   
 C4H6,cyclo-     C4H8,1-butene   C4H8,cis2-buten C4H8,tr2-butene C4H8,isobutene 
 C4H8,cyclo-     (CH3COOH)2      C4H9,n-butyl    C4H9,i-butyl    C4H9,s-butyl   
 C4H9,t-butyl    C4H10,n-butane  C4H10,isobutane *C5             C5H6,1,3cyclo- 
 C5H8,cyclo-     C5H10,1-pentene C5H10,cyclo-    C5H11,pentyl    C5H11,t-pentyl 
 C5H12,n-pentane C5H12,i-pentane CH3C(CH3)2CH3   C6H2            C6H5,phenyl    
 C6H5O,phenoxy   C6H6            C6H5OH,phenol   C6H10,cyclo-    C6H12,1-hexene 
 C6H12,cyclo-    C6H13,n-hexyl   C6H14,n-hexane  C7H7,benzyl     C7H8           
 C7H8O,cresol-mx C7H14,1-heptene C7H15,n-heptyl  C7H16,n-heptane C7H16,2-methylh
 C8H8,styrene    C8H10,ethylbenz C8H16,1-octene  C8H17,n-octyl   C8H18,n-octane 
 C8H18,isooctane C9H19,n-nonyl   C10H8,naphthale C10H21,n-decyl  C12H9,o-bipheny
 C12H10,biphenyl *H              HCO             HCCO            HO2            
 *H2             HCHO,formaldehy HCOOH           H2O2            (HCOOH)2       
 *O              *OH             O3              C(gr)           H2O(cr)        

 NOTE. WEIGHT FRACTION OF FUEL IN TOTAL FUELS AND OF OXIDANT IN TOTAL OXIDANTS






 WARNING!!  ASSIGNED pip =   0.00000 IS NOT PERMITTED
 TO BE LESS THAN  Pinj/Pc =  1.00001. POINT OMITTED (ROCKET)





              THEORETICAL ROCKET PERFORMANCE ASSUMING EQUILIBRIUM

            COMPOSITION DURING EXPANSION FROM FINITE AREA COMBUSTOR

 Pin =   226.4 PSIA
 Ac/At =161.9835      Pinj/Pinf =  1.000005
 CASE =                

             REACTANT                    WT FRACTION      ENERGY      TEMP
                                          (SEE NOTE)     KJ/KG-MOL      K  
 OXIDANT     O2(L)                        1.0000000    -12979.000     90.170
 FUEL        PMMA                         1.0000000   -442140.000    293.150

 O/F=   57.19687  %FUEL=  1.718306  R,EQ.RATIO= 0.038899  PHI,EQ.RATIO= 0.033528

                 INJECTOR  COMB END  THROAT
 Pinj/P            1.0000   1.0000   1.8276
 P, BAR            15.610   15.610   8.5411
 T, K              338.18   338.18   301.94
 RHO, KG/CU M    1.7886 1 1.7886 1 1.1088 1
 H, KJ/KG         -474.52  -474.53  -524.07
 U, KJ/KG         -561.80  -561.80  -601.10
 G, KJ/KG        -2450.48 -2450.48 -2288.28
 S, KJ/(KG)(K)     5.8429   5.8429   5.8429

 M, (1/n)          32.218   32.218   32.590
 MW, MOL WT        32.021   32.021   32.021
 (dLV/dLP)t      -1.01623 -1.01623 -1.00465
 (dLV/dLT)p        1.2443   1.2443   1.0813
 Cp, KJ/(KG)(K)    1.8930   1.8930   1.3126
 GAMMAs            1.2420   1.2420   1.2863
 SON VEL,M/SEC      329.2    329.2    314.8
 MACH NUMBER        0.000    0.003    1.000

 PERFORMANCE PARAMETERS

 Ae/At                      203.24   1.0000
 CSTAR, M/SEC                447.3    447.3
 CF                         0.0021   0.7038
 Ivac, M/SEC               90899.3    559.5
 Isp, M/SEC                    1.0    314.8


 MOLE FRACTIONS

 *CO2             0.02748  0.02748  0.02748
 H2O              0.01587  0.01587  0.00455
 *O2              0.95054  0.95054  0.95054
 H2O(L)           0.00611  0.00611  0.01743

  * THERMODYNAMIC PROPERTIES FITTED TO 20000.K

    PRODUCTS WHICH WERE CONSIDERED BUT WHOSE MOLE FRACTIONS
    WERE LESS THAN 5.000000E-06 FOR ALL ASSIGNED CONDITIONS

 *C              *CH             CH2             CH3             CH2OH          
 CH3O            CH4             CH3OH           CH3OOH          *CO            
 COOH            *C2             C2H             C2H2,acetylene  C2H2,vinylidene
 CH2CO,ketene    O(CH)2O         HO(CO)2OH       C2H3,vinyl      CH3CO,acetyl   
 C2H4            C2H4O,ethylen-o CH3CHO,ethanal  CH3COOH         OHCH2COOH      
 C2H5            C2H6            C2H5OH          CH3OCH3         CH3O2CH3       
 C2O             *C3             C3H3,1-propynl  C3H3,2-propynl  C3H4,allene    
 C3H4,propyne    C3H4,cyclo-     C3H5,allyl      C3H6,propylene  C3H6,cyclo-    
 C3H6O,propylox  C3H6O,acetone   C3H6O,propanal  C3H7,n-propyl   C3H7,i-propyl  
 C3H8            C3H8O,1propanol C3H8O,2propanol C3O2            *C4            
 C4H2,butadiyne  C4H4,1,3-cyclo- C4H6,butadiene  C4H6,1butyne    C4H6,2butyne   
 C4H6,cyclo-     C4H8,1-butene   C4H8,cis2-buten C4H8,tr2-butene C4H8,isobutene 
 C4H8,cyclo-     (CH3COOH)2      C4H9,n-butyl    C4H9,i-butyl    C4H9,s-butyl   
 C4H9,t-butyl    C4H10,n-butane  C4H10,isobutane *C5             C5H6,1,3cyclo- 
 C5H8,cyclo-     C5H10,1-pentene C5H10,cyclo-    C5H11,pentyl    C5H11,t-pentyl 
 C5H12,n-pentane C5H12,i-pentane CH3C(CH3)2CH3   C6H2            C6H5,phenyl    
 C6H5O,phenoxy   C6H6            C6H5OH,phenol   C6H10,cyclo-    C6H12,1-hexene 
 C6H12,cyclo-    C6H13,n-hexyl   C6H14,n-hexane  C7H7,benzyl     C7H8           
 C7H8O,cresol-mx C7H14,1-heptene C7H15,n-heptyl  C7H16,n-heptane C7H16,2-methylh
 C8H8,styrene    C8H10,ethylbenz C8H16,1-octene  C8H17,n-octyl   C8H18,n-octane 
 C8H18,isooctane C9H19,n-nonyl   C10H8,naphthale C10H21,n-decyl  C12H9,o-bipheny
 C12H10,biphenyl *H              HCO             HCCO            HO2            
 *H2             HCHO,formaldehy HCOOH           H2O2            (HCOOH)2       
 *O              *OH             O3              C(gr)           H2O(cr)        

 NOTE. WEIGHT FRACTION OF FUEL IN TOTAL FUELS AND OF OXIDANT IN TOTAL OXIDANTS






 WARNING!!  ASSIGNED pip =   0.00000 IS NOT PERMITTED
 TO BE LESS THAN  Pinj/Pc =  1.00001. POINT OMITTED (ROCKET)





              THEORETICAL ROCKET PERFORMANCE ASSUMING EQUILIBRIUM

            COMPOSITION DURING EXPANSION FROM FINITE AREA COMBUSTOR

 Pin =   226.4 PSIA
 Ac/At =161.9835      Pinj/Pinf =  1.000005
 CASE =                

             REACTANT                    WT FRACTION      ENERGY      TEMP
                                          (SEE NOTE)     KJ/KG-MOL      K  
 OXIDANT     O2(L)                        1.0000000    -12979.000     90.170
 FUEL        PMMA                         1.0000000   -442140.000    293.150

 O/F=   57.19687  %FUEL=  1.718306  R,EQ.RATIO= 0.038899  PHI,EQ.RATIO= 0.033528

                 INJECTOR  COMB END  THROAT
 Pinj/P            1.0000   1.0000   1.8276
 P, BAR            15.610   15.610   8.5411
 T, K              338.18   338.18   301.94
 RHO, KG/CU M    1.7886 1 1.7886 1 1.1088 1
 H, KJ/KG         -474.52  -474.53  -524.07
 U, KJ/KG         -561.80  -561.80  -601.10
 G, KJ/KG        -2450.48 -2450.48 -2288.28
 S, KJ/(KG)(K)     5.8429   5.8429   5.8429

 M, (1/n)          32.218   32.218   32.590
 MW, MOL WT        32.021   32.021   32.021
 (dLV/dLP)t      -1.01623 -1.01623 -1.00465
 (dLV/dLT)p        1.2443   1.2443   1.0813
 Cp, KJ/(KG)(K)    1.8930   1.8930   1.3126
 GAMMAs            1.2420   1.2420   1.2863
 SON VEL,M/SEC      329.2    329.2    314.8
 MACH NUMBER        0.000    0.003    1.000

 PERFORMANCE PARAMETERS

 Ae/At                      203.24   1.0000
 CSTAR, M/SEC                447.3    447.3
 CF                         0.0021   0.7038
 Ivac, M/SEC               90899.3    559.5
 Isp, M/SEC                    1.0    314.8


 MOLE FRACTIONS

 *CO2             0.02748  0.02748  0.02748
 H2O              0.01587  0.01587  0.00455
 *O2              0.95054  0.95054  0.95054
 H2O(L)           0.00611  0.00611  0.01743

  * THERMODYNAMIC PROPERTIES FITTED TO 20000.K

    PRODUCTS WHICH WERE CONSIDERED BUT WHOSE MOLE FRACTIONS
    WERE LESS THAN 5.000000E-06 FOR ALL ASSIGNED CONDITIONS

 *C              *CH             CH2             CH3             CH2OH          
 CH3O            CH4             CH3OH           CH3OOH          *CO            
 COOH            *C2             C2H             C2H2,acetylene  C2H2,vinylidene
 CH2CO,ketene    O(CH)2O         HO(CO)2OH       C2H3,vinyl      CH3CO,acetyl   
 C2H4            C2H4O,ethylen-o CH3CHO,ethanal  CH3COOH         OHCH2COOH      
 C2H5            C2H6            C2H5OH          CH3OCH3         CH3O2CH3       
 C2O             *C3             C3H3,1-propynl  C3H3,2-propynl  C3H4,allene    
 C3H4,propyne    C3H4,cyclo-     C3H5,allyl      C3H6,propylene  C3H6,cyclo-    
 C3H6O,propylox  C3H6O,acetone   C3H6O,propanal  C3H7,n-propyl   C3H7,i-propyl  
 C3H8            C3H8O,1propanol C3H8O,2propanol C3O2            *C4            
 C4H2,butadiyne  C4H4,1,3-cyclo- C4H6,butadiene  C4H6,1butyne    C4H6,2butyne   
 C4H6,cyclo-     C4H8,1-butene   C4H8,cis2-buten C4H8,tr2-butene C4H8,isobutene 
 C4H8,cyclo-     (CH3COOH)2      C4H9,n-butyl    C4H9,i-butyl    C4H9,s-butyl   
 C4H9,t-butyl    C4H10,n-butane  C4H10,isobutane *C5             C5H6,1,3cyclo- 
 C5H8,cyclo-     C5H10,1-pentene C5H10,cyclo-    C5H11,pentyl    C5H11,t-pentyl 
 C5H12,n-pentane C5H12,i-pentane CH3C(CH3)2CH3   C6H2            C6H5,phenyl    
 C6H5O,phenoxy   C6H6            C6H5OH,phenol   C6H10,cyclo-    C6H12,1-hexene 
 C6H12,cyclo-    C6H13,n-hexyl   C6H14,n-hexane  C7H7,benzyl     C7H8           
 C7H8O,cresol-mx C7H14,1-heptene C7H15,n-heptyl  C7H16,n-heptane C7H16,2-methylh
 C8H8,styrene    C8H10,ethylbenz C8H16,1-octene  C8H17,n-octyl   C8H18,n-octane 
 C8H18,isooctane C9H19,n-nonyl   C10H8,naphthale C10H21,n-decyl  C12H9,o-bipheny
 C12H10,biphenyl *H              HCO             HCCO            HO2            
 *H2             HCHO,formaldehy HCOOH           H2O2            (HCOOH)2       
 *O              *OH             O3              C(gr)           H2O(cr)        

 NOTE. WEIGHT FRACTION OF FUEL IN TOTAL FUELS AND OF OXIDANT IN TOTAL OXIDANTS






 WARNING!!  ASSIGNED pip =   0.00000 IS NOT PERMITTED
 TO BE LESS THAN  Pinj/Pc =  1.00001. POINT OMITTED (ROCKET)





              THEORETICAL ROCKET PERFORMANCE ASSUMING EQUILIBRIUM

            COMPOSITION DURING EXPANSION FROM FINITE AREA COMBUSTOR

 Pin =   226.4 PSIA
 Ac/At =161.9835      Pinj/Pinf =  1.000005
 CASE =                

             REACTANT                    WT FRACTION      ENERGY      TEMP
                                          (SEE NOTE)     KJ/KG-MOL      K  
 OXIDANT     O2(L)                        1.0000000    -12979.000     90.170
 FUEL        PMMA                         1.0000000   -442140.000    293.150

 O/F=   57.19687  %FUEL=  1.718306  R,EQ.RATIO= 0.038899  PHI,EQ.RATIO= 0.033528

                 INJECTOR  COMB END  THROAT
 Pinj/P            1.0000   1.0000   1.8276
 P, BAR            15.610   15.610   8.5411
 T, K              338.18   338.18   301.94
 RHO, KG/CU M    1.7886 1 1.7886 1 1.1088 1
 H, KJ/KG         -474.52  -474.53  -524.07
 U, KJ/KG         -561.80  -561.80  -601.10
 G, KJ/KG        -2450.48 -2450.48 -2288.28
 S, KJ/(KG)(K)     5.8429   5.8429   5.8429

 M, (1/n)          32.218   32.218   32.590
 MW, MOL WT        32.021   32.021   32.021
 (dLV/dLP)t      -1.01623 -1.01623 -1.00465
 (dLV/dLT)p        1.2443   1.2443   1.0813
 Cp, KJ/(KG)(K)    1.8930   1.8930   1.3126
 GAMMAs            1.2420   1.2420   1.2863
 SON VEL,M/SEC      329.2    329.2    314.8
 MACH NUMBER        0.000    0.003    1.000

 PERFORMANCE PARAMETERS

 Ae/At                      203.24   1.0000
 CSTAR, M/SEC                447.3    447.3
 CF                         0.0021   0.7038
 Ivac, M/SEC               90899.3    559.5
 Isp, M/SEC                    1.0    314.8


 MOLE FRACTIONS

 *CO2             0.02748  0.02748  0.02748
 H2O              0.01587  0.01587  0.00455
 *O2              0.95054  0.95054  0.95054
 H2O(L)           0.00611  0.00611  0.01743

  * THERMODYNAMIC PROPERTIES FITTED TO 20000.K

    PRODUCTS WHICH WERE CONSIDERED BUT WHOSE MOLE FRACTIONS
    WERE LESS THAN 5.000000E-06 FOR ALL ASSIGNED CONDITIONS

 *C              *CH             CH2             CH3             CH2OH          
 CH3O            CH4             CH3OH           CH3OOH          *CO            
 COOH            *C2             C2H             C2H2,acetylene  C2H2,vinylidene
 CH2CO,ketene    O(CH)2O         HO(CO)2OH       C2H3,vinyl      CH3CO,acetyl   
 C2H4            C2H4O,ethylen-o CH3CHO,ethanal  CH3COOH         OHCH2COOH      
 C2H5            C2H6            C2H5OH          CH3OCH3         CH3O2CH3       
 C2O             *C3             C3H3,1-propynl  C3H3,2-propynl  C3H4,allene    
 C3H4,propyne    C3H4,cyclo-     C3H5,allyl      C3H6,propylene  C3H6,cyclo-    
 C3H6O,propylox  C3H6O,acetone   C3H6O,propanal  C3H7,n-propyl   C3H7,i-propyl  
 C3H8            C3H8O,1propanol C3H8O,2propanol C3O2            *C4            
 C4H2,butadiyne  C4H4,1,3-cyclo- C4H6,butadiene  C4H6,1butyne    C4H6,2butyne   
 C4H6,cyclo-     C4H8,1-butene   C4H8,cis2-buten C4H8,tr2-butene C4H8,isobutene 
 C4H8,cyclo-     (CH3COOH)2      C4H9,n-butyl    C4H9,i-butyl    C4H9,s-butyl   
 C4H9,t-butyl    C4H10,n-butane  C4H10,isobutane *C5             C5H6,1,3cyclo- 
 C5H8,cyclo-     C5H10,1-pentene C5H10,cyclo-    C5H11,pentyl    C5H11,t-pentyl 
 C5H12,n-pentane C5H12,i-pentane CH3C(CH3)2CH3   C6H2            C6H5,phenyl    
 C6H5O,phenoxy   C6H6            C6H5OH,phenol   C6H10,cyclo-    C6H12,1-hexene 
 C6H12,cyclo-    C6H13,n-hexyl   C6H14,n-hexane  C7H7,benzyl     C7H8           
 C7H8O,cresol-mx C7H14,1-heptene C7H15,n-heptyl  C7H16,n-heptane C7H16,2-methylh
 C8H8,styrene    C8H10,ethylbenz C8H16,1-octene  C8H17,n-octyl   C8H18,n-octane 
 C8H18,isooctane C9H19,n-nonyl   C10H8,naphthale C10H21,n-decyl  C12H9,o-bipheny
 C12H10,biphenyl *H              HCO             HCCO            HO2            
 *H2             HCHO,formaldehy HCOOH           H2O2            (HCOOH)2       
 *O              *OH             O3              C(gr)           H2O(cr)        

 NOTE. WEIGHT FRACTION OF FUEL IN TOTAL FUELS AND OF OXIDANT IN TOTAL OXIDANTS






 WARNING!!  ASSIGNED pip =   0.00000 IS NOT PERMITTED
 TO BE LESS THAN  Pinj/Pc =  1.00001. POINT OMITTED (ROCKET)





              THEORETICAL ROCKET PERFORMANCE ASSUMING EQUILIBRIUM

            COMPOSITION DURING EXPANSION FROM FINITE AREA COMBUSTOR

 Pin =   226.4 PSIA
 Ac/At =161.9835      Pinj/Pinf =  1.000005
 CASE =                

             REACTANT                    WT FRACTION      ENERGY      TEMP
                                          (SEE NOTE)     KJ/KG-MOL      K  
 OXIDANT     O2(L)                        1.0000000    -12979.000     90.170
 FUEL        PMMA                         1.0000000   -442140.000    293.150

 O/F=   57.19687  %FUEL=  1.718306  R,EQ.RATIO= 0.038899  PHI,EQ.RATIO= 0.033528

                 INJECTOR  COMB END  THROAT
 Pinj/P            1.0000   1.0000   1.8276
 P, BAR            15.610   15.610   8.5411
 T, K              338.18   338.18   301.94
 RHO, KG/CU M    1.7886 1 1.7886 1 1.1088 1
 H, KJ/KG         -474.52  -474.53  -524.07
 U, KJ/KG         -561.80  -561.80  -601.10
 G, KJ/KG        -2450.48 -2450.48 -2288.28
 S, KJ/(KG)(K)     5.8429   5.8429   5.8429

 M, (1/n)          32.218   32.218   32.590
 MW, MOL WT        32.021   32.021   32.021
 (dLV/dLP)t      -1.01623 -1.01623 -1.00465
 (dLV/dLT)p        1.2443   1.2443   1.0813
 Cp, KJ/(KG)(K)    1.8930   1.8930   1.3126
 GAMMAs            1.2420   1.2420   1.2863
 SON VEL,M/SEC      329.2    329.2    314.8
 MACH NUMBER        0.000    0.003    1.000

 PERFORMANCE PARAMETERS

 Ae/At                      203.24   1.0000
 CSTAR, M/SEC                447.3    447.3
 CF                         0.0021   0.7038
 Ivac, M/SEC               90899.3    559.5
 Isp, M/SEC                    1.0    314.8


 MOLE FRACTIONS

 *CO2             0.02748  0.02748  0.02748
 H2O              0.01587  0.01587  0.00455
 *O2              0.95054  0.95054  0.95054
 H2O(L)           0.00611  0.00611  0.01743

  * THERMODYNAMIC PROPERTIES FITTED TO 20000.K

    PRODUCTS WHICH WERE CONSIDERED BUT WHOSE MOLE FRACTIONS
    WERE LESS THAN 5.000000E-06 FOR ALL ASSIGNED CONDITIONS

 *C              *CH             CH2             CH3             CH2OH          
 CH3O            CH4             CH3OH           CH3OOH          *CO            
 COOH            *C2             C2H             C2H2,acetylene  C2H2,vinylidene
 CH2CO,ketene    O(CH)2O         HO(CO)2OH       C2H3,vinyl      CH3CO,acetyl   
 C2H4            C2H4O,ethylen-o CH3CHO,ethanal  CH3COOH         OHCH2COOH      
 C2H5            C2H6            C2H5OH          CH3OCH3         CH3O2CH3       
 C2O             *C3             C3H3,1-propynl  C3H3,2-propynl  C3H4,allene    
 C3H4,propyne    C3H4,cyclo-     C3H5,allyl      C3H6,propylene  C3H6,cyclo-    
 C3H6O,propylox  C3H6O,acetone   C3H6O,propanal  C3H7,n-propyl   C3H7,i-propyl  
 C3H8            C3H8O,1propanol C3H8O,2propanol C3O2            *C4            
 C4H2,butadiyne  C4H4,1,3-cyclo- C4H6,butadiene  C4H6,1butyne    C4H6,2butyne   
 C4H6,cyclo-     C4H8,1-butene   C4H8,cis2-buten C4H8,tr2-butene C4H8,isobutene 
 C4H8,cyclo-     (CH3COOH)2      C4H9,n-butyl    C4H9,i-butyl    C4H9,s-butyl   
 C4H9,t-butyl    C4H10,n-butane  C4H10,isobutane *C5             C5H6,1,3cyclo- 
 C5H8,cyclo-     C5H10,1-pentene C5H10,cyclo-    C5H11,pentyl    C5H11,t-pentyl 
 C5H12,n-pentane C5H12,i-pentane CH3C(CH3)2CH3   C6H2            C6H5,phenyl    
 C6H5O,phenoxy   C6H6            C6H5OH,phenol   C6H10,cyclo-    C6H12,1-hexene 
 C6H12,cyclo-    C6H13,n-hexyl   C6H14,n-hexane  C7H7,benzyl     C7H8           
 C7H8O,cresol-mx C7H14,1-heptene C7H15,n-heptyl  C7H16,n-heptane C7H16,2-methylh
 C8H8,styrene    C8H10,ethylbenz C8H16,1-octene  C8H17,n-octyl   C8H18,n-octane 
 C8H18,isooctane C9H19,n-nonyl   C10H8,naphthale C10H21,n-decyl  C12H9,o-bipheny
 C12H10,biphenyl *H              HCO             HCCO            HO2            
 *H2             HCHO,formaldehy HCOOH           H2O2            (HCOOH)2       
 *O              *OH             O3              C(gr)           H2O(cr)        

 NOTE. WEIGHT FRACTION OF FUEL IN TOTAL FUELS AND OF OXIDANT IN TOTAL OXIDANTS






 WARNING!!  ASSIGNED pip =   0.00000 IS NOT PERMITTED
 TO BE LESS THAN  Pinj/Pc =  1.00001. POINT OMITTED (ROCKET)





              THEORETICAL ROCKET PERFORMANCE ASSUMING EQUILIBRIUM

            COMPOSITION DURING EXPANSION FROM FINITE AREA COMBUSTOR

 Pin =   226.4 PSIA
 Ac/At =161.9835      Pinj/Pinf =  1.000005
 CASE =                

             REACTANT                    WT FRACTION      ENERGY      TEMP
                                          (SEE NOTE)     KJ/KG-MOL      K  
 OXIDANT     O2(L)                        1.0000000    -12979.000     90.170
 FUEL        PMMA                         1.0000000   -442140.000    293.150

 O/F=   57.19687  %FUEL=  1.718306  R,EQ.RATIO= 0.038899  PHI,EQ.RATIO= 0.033528

                 INJECTOR  COMB END  THROAT
 Pinj/P            1.0000   1.0000   1.8276
 P, BAR            15.610   15.610   8.5411
 T, K              338.18   338.18   301.94
 RHO, KG/CU M    1.7886 1 1.7886 1 1.1088 1
 H, KJ/KG         -474.52  -474.53  -524.07
 U, KJ/KG         -561.80  -561.80  -601.10
 G, KJ/KG        -2450.48 -2450.48 -2288.28
 S, KJ/(KG)(K)     5.8429   5.8429   5.8429

 M, (1/n)          32.218   32.218   32.590
 MW, MOL WT        32.021   32.021   32.021
 (dLV/dLP)t      -1.01623 -1.01623 -1.00465
 (dLV/dLT)p        1.2443   1.2443   1.0813
 Cp, KJ/(KG)(K)    1.8930   1.8930   1.3126
 GAMMAs            1.2420   1.2420   1.2863
 SON VEL,M/SEC      329.2    329.2    314.8
 MACH NUMBER        0.000    0.003    1.000

 PERFORMANCE PARAMETERS

 Ae/At                      203.24   1.0000
 CSTAR, M/SEC                447.3    447.3
 CF                         0.0021   0.7038
 Ivac, M/SEC               90899.3    559.5
 Isp, M/SEC                    1.0    314.8


 MOLE FRACTIONS

 *CO2             0.02748  0.02748  0.02748
 H2O              0.01587  0.01587  0.00455
 *O2              0.95054  0.95054  0.95054
 H2O(L)           0.00611  0.00611  0.01743

  * THERMODYNAMIC PROPERTIES FITTED TO 20000.K

    PRODUCTS WHICH WERE CONSIDERED BUT WHOSE MOLE FRACTIONS
    WERE LESS THAN 5.000000E-06 FOR ALL ASSIGNED CONDITIONS

 *C              *CH             CH2             CH3             CH2OH          
 CH3O            CH4             CH3OH           CH3OOH          *CO            
 COOH            *C2             C2H             C2H2,acetylene  C2H2,vinylidene
 CH2CO,ketene    O(CH)2O         HO(CO)2OH       C2H3,vinyl      CH3CO,acetyl   
 C2H4            C2H4O,ethylen-o CH3CHO,ethanal  CH3COOH         OHCH2COOH      
 C2H5            C2H6            C2H5OH          CH3OCH3         CH3O2CH3       
 C2O             *C3             C3H3,1-propynl  C3H3,2-propynl  C3H4,allene    
 C3H4,propyne    C3H4,cyclo-     C3H5,allyl      C3H6,propylene  C3H6,cyclo-    
 C3H6O,propylox  C3H6O,acetone   C3H6O,propanal  C3H7,n-propyl   C3H7,i-propyl  
 C3H8            C3H8O,1propanol C3H8O,2propanol C3O2            *C4            
 C4H2,butadiyne  C4H4,1,3-cyclo- C4H6,butadiene  C4H6,1butyne    C4H6,2butyne   
 C4H6,cyclo-     C4H8,1-butene   C4H8,cis2-buten C4H8,tr2-butene C4H8,isobutene 
 C4H8,cyclo-     (CH3COOH)2      C4H9,n-butyl    C4H9,i-butyl    C4H9,s-butyl   
 C4H9,t-butyl    C4H10,n-butane  C4H10,isobutane *C5             C5H6,1,3cyclo- 
 C5H8,cyclo-     C5H10,1-pentene C5H10,cyclo-    C5H11,pentyl    C5H11,t-pentyl 
 C5H12,n-pentane C5H12,i-pentane CH3C(CH3)2CH3   C6H2            C6H5,phenyl    
 C6H5O,phenoxy   C6H6            C6H5OH,phenol   C6H10,cyclo-    C6H12,1-hexene 
 C6H12,cyclo-    C6H13,n-hexyl   C6H14,n-hexane  C7H7,benzyl     C7H8           
 C7H8O,cresol-mx C7H14,1-heptene C7H15,n-heptyl  C7H16,n-heptane C7H16,2-methylh
 C8H8,styrene    C8H10,ethylbenz C8H16,1-octene  C8H17,n-octyl   C8H18,n-octane 
 C8H18,isooctane C9H19,n-nonyl   C10H8,naphthale C10H21,n-decyl  C12H9,o-bipheny
 C12H10,biphenyl *H              HCO             HCCO            HO2            
 *H2             HCHO,formaldehy HCOOH           H2O2            (HCOOH)2       
 *O              *OH             O3              C(gr)           H2O(cr)        

 NOTE. WEIGHT FRACTION OF FUEL IN TOTAL FUELS AND OF OXIDANT IN TOTAL OXIDANTS






 WARNING!!  ASSIGNED pip =   0.00000 IS NOT PERMITTED
 TO BE LESS THAN  Pinj/Pc =  1.00001. POINT OMITTED (ROCKET)





              THEORETICAL ROCKET PERFORMANCE ASSUMING EQUILIBRIUM

            COMPOSITION DURING EXPANSION FROM FINITE AREA COMBUSTOR

 Pin =   226.4 PSIA
 Ac/At =161.9835      Pinj/Pinf =  1.000005
 CASE =                

             REACTANT                    WT FRACTION      ENERGY      TEMP
                                          (SEE NOTE)     KJ/KG-MOL      K  
 OXIDANT     O2(L)                        1.0000000    -12979.000     90.170
 FUEL        PMMA                         1.0000000   -442140.000    293.150

 O/F=   57.19687  %FUEL=  1.718306  R,EQ.RATIO= 0.038899  PHI,EQ.RATIO= 0.033528

                 INJECTOR  COMB END  THROAT
 Pinj/P            1.0000   1.0000   1.8276
 P, BAR            15.610   15.610   8.5411
 T, K              338.18   338.18   301.94
 RHO, KG/CU M    1.7886 1 1.7886 1 1.1088 1
 H, KJ/KG         -474.52  -474.53  -524.07
 U, KJ/KG         -561.80  -561.80  -601.10
 G, KJ/KG        -2450.48 -2450.48 -2288.28
 S, KJ/(KG)(K)     5.8429   5.8429   5.8429

 M, (1/n)          32.218   32.218   32.590
 MW, MOL WT        32.021   32.021   32.021
 (dLV/dLP)t      -1.01623 -1.01623 -1.00465
 (dLV/dLT)p        1.2443   1.2443   1.0813
 Cp, KJ/(KG)(K)    1.8930   1.8930   1.3126
 GAMMAs            1.2420   1.2420   1.2863
 SON VEL,M/SEC      329.2    329.2    314.8
 MACH NUMBER        0.000    0.003    1.000

 PERFORMANCE PARAMETERS

 Ae/At                      203.24   1.0000
 CSTAR, M/SEC                447.3    447.3
 CF                         0.0021   0.7038
 Ivac, M/SEC               90899.3    559.5
 Isp, M/SEC                    1.0    314.8


 MOLE FRACTIONS

 *CO2             0.02748  0.02748  0.02748
 H2O              0.01587  0.01587  0.00455
 *O2              0.95054  0.95054  0.95054
 H2O(L)           0.00611  0.00611  0.01743

  * THERMODYNAMIC PROPERTIES FITTED TO 20000.K

    PRODUCTS WHICH WERE CONSIDERED BUT WHOSE MOLE FRACTIONS
    WERE LESS THAN 5.000000E-06 FOR ALL ASSIGNED CONDITIONS

 *C              *CH             CH2             CH3             CH2OH          
 CH3O            CH4             CH3OH           CH3OOH          *CO            
 COOH            *C2             C2H             C2H2,acetylene  C2H2,vinylidene
 CH2CO,ketene    O(CH)2O         HO(CO)2OH       C2H3,vinyl      CH3CO,acetyl   
 C2H4            C2H4O,ethylen-o CH3CHO,ethanal  CH3COOH         OHCH2COOH      
 C2H5            C2H6            C2H5OH          CH3OCH3         CH3O2CH3       
 C2O             *C3             C3H3,1-propynl  C3H3,2-propynl  C3H4,allene    
 C3H4,propyne    C3H4,cyclo-     C3H5,allyl      C3H6,propylene  C3H6,cyclo-    
 C3H6O,propylox  C3H6O,acetone   C3H6O,propanal  C3H7,n-propyl   C3H7,i-propyl  
 C3H8            C3H8O,1propanol C3H8O,2propanol C3O2            *C4            
 C4H2,butadiyne  C4H4,1,3-cyclo- C4H6,butadiene  C4H6,1butyne    C4H6,2butyne   
 C4H6,cyclo-     C4H8,1-butene   C4H8,cis2-buten C4H8,tr2-butene C4H8,isobutene 
 C4H8,cyclo-     (CH3COOH)2      C4H9,n-butyl    C4H9,i-butyl    C4H9,s-butyl   
 C4H9,t-butyl    C4H10,n-butane  C4H10,isobutane *C5             C5H6,1,3cyclo- 
 C5H8,cyclo-     C5H10,1-pentene C5H10,cyclo-    C5H11,pentyl    C5H11,t-pentyl 
 C5H12,n-pentane C5H12,i-pentane CH3C(CH3)2CH3   C6H2            C6H5,phenyl    
 C6H5O,phenoxy   C6H6            C6H5OH,phenol   C6H10,cyclo-    C6H12,1-hexene 
 C6H12,cyclo-    C6H13,n-hexyl   C6H14,n-hexane  C7H7,benzyl     C7H8           
 C7H8O,cresol-mx C7H14,1-heptene C7H15,n-heptyl  C7H16,n-heptane C7H16,2-methylh
 C8H8,styrene    C8H10,ethylbenz C8H16,1-octene  C8H17,n-octyl   C8H18,n-octane 
 C8H18,isooctane C9H19,n-nonyl   C10H8,naphthale C10H21,n-decyl  C12H9,o-bipheny
 C12H10,biphenyl *H              HCO             HCCO            HO2            
 *H2             HCHO,formaldehy HCOOH           H2O2            (HCOOH)2       
 *O              *OH             O3              C(gr)           H2O(cr)        

 NOTE. WEIGHT FRACTION OF FUEL IN TOTAL FUELS AND OF OXIDANT IN TOTAL OXIDANTS






 WARNING!!  ASSIGNED pip =   0.00000 IS NOT PERMITTED
 TO BE LESS THAN  Pinj/Pc =  1.00001. POINT OMITTED (ROCKET)





              THEORETICAL ROCKET PERFORMANCE ASSUMING EQUILIBRIUM

            COMPOSITION DURING EXPANSION FROM FINITE AREA COMBUSTOR

 Pin =   226.4 PSIA
 Ac/At =161.9835      Pinj/Pinf =  1.000005
 CASE =                

             REACTANT                    WT FRACTION      ENERGY      TEMP
                                          (SEE NOTE)     KJ/KG-MOL      K  
 OXIDANT     O2(L)                        1.0000000    -12979.000     90.170
 FUEL        PMMA                         1.0000000   -442140.000    293.150

 O/F=   57.19687  %FUEL=  1.718306  R,EQ.RATIO= 0.038899  PHI,EQ.RATIO= 0.033528

                 INJECTOR  COMB END  THROAT
 Pinj/P            1.0000   1.0000   1.8276
 P, BAR            15.610   15.610   8.5411
 T, K              338.18   338.18   301.94
 RHO, KG/CU M    1.7886 1 1.7886 1 1.1088 1
 H, KJ/KG         -474.52  -474.53  -524.07
 U, KJ/KG         -561.80  -561.80  -601.10
 G, KJ/KG        -2450.48 -2450.48 -2288.28
 S, KJ/(KG)(K)     5.8429   5.8429   5.8429

 M, (1/n)          32.218   32.218   32.590
 MW, MOL WT        32.021   32.021   32.021
 (dLV/dLP)t      -1.01623 -1.01623 -1.00465
 (dLV/dLT)p        1.2443   1.2443   1.0813
 Cp, KJ/(KG)(K)    1.8930   1.8930   1.3126
 GAMMAs            1.2420   1.2420   1.2863
 SON VEL,M/SEC      329.2    329.2    314.8
 MACH NUMBER        0.000    0.003    1.000

 PERFORMANCE PARAMETERS

 Ae/At                      203.24   1.0000
 CSTAR, M/SEC                447.3    447.3
 CF                         0.0021   0.7038
 Ivac, M/SEC               90899.3    559.5
 Isp, M/SEC                    1.0    314.8


 MOLE FRACTIONS

 *CO2             0.02748  0.02748  0.02748
 H2O              0.01587  0.01587  0.00455
 *O2              0.95054  0.95054  0.95054
 H2O(L)           0.00611  0.00611  0.01743

  * THERMODYNAMIC PROPERTIES FITTED TO 20000.K

    PRODUCTS WHICH WERE CONSIDERED BUT WHOSE MOLE FRACTIONS
    WERE LESS THAN 5.000000E-06 FOR ALL ASSIGNED CONDITIONS

 *C              *CH             CH2             CH3             CH2OH          
 CH3O            CH4             CH3OH           CH3OOH          *CO            
 COOH            *C2             C2H             C2H2,acetylene  C2H2,vinylidene
 CH2CO,ketene    O(CH)2O         HO(CO)2OH       C2H3,vinyl      CH3CO,acetyl   
 C2H4            C2H4O,ethylen-o CH3CHO,ethanal  CH3COOH         OHCH2COOH      
 C2H5            C2H6            C2H5OH          CH3OCH3         CH3O2CH3       
 C2O             *C3             C3H3,1-propynl  C3H3,2-propynl  C3H4,allene    
 C3H4,propyne    C3H4,cyclo-     C3H5,allyl      C3H6,propylene  C3H6,cyclo-    
 C3H6O,propylox  C3H6O,acetone   C3H6O,propanal  C3H7,n-propyl   C3H7,i-propyl  
 C3H8            C3H8O,1propanol C3H8O,2propanol C3O2            *C4            
 C4H2,butadiyne  C4H4,1,3-cyclo- C4H6,butadiene  C4H6,1butyne    C4H6,2butyne   
 C4H6,cyclo-     C4H8,1-butene   C4H8,cis2-buten C4H8,tr2-butene C4H8,isobutene 
 C4H8,cyclo-     (CH3COOH)2      C4H9,n-butyl    C4H9,i-butyl    C4H9,s-butyl   
 C4H9,t-butyl    C4H10,n-butane  C4H10,isobutane *C5             C5H6,1,3cyclo- 
 C5H8,cyclo-     C5H10,1-pentene C5H10,cyclo-    C5H11,pentyl    C5H11,t-pentyl 
 C5H12,n-pentane C5H12,i-pentane CH3C(CH3)2CH3   C6H2            C6H5,phenyl    
 C6H5O,phenoxy   C6H6            C6H5OH,phenol   C6H10,cyclo-    C6H12,1-hexene 
 C6H12,cyclo-    C6H13,n-hexyl   C6H14,n-hexane  C7H7,benzyl     C7H8           
 C7H8O,cresol-mx C7H14,1-heptene C7H15,n-heptyl  C7H16,n-heptane C7H16,2-methylh
 C8H8,styrene    C8H10,ethylbenz C8H16,1-octene  C8H17,n-octyl   C8H18,n-octane 
 C8H18,isooctane C9H19,n-nonyl   C10H8,naphthale C10H21,n-decyl  C12H9,o-bipheny
 C12H10,biphenyl *H              HCO             HCCO            HO2            
 *H2             HCHO,formaldehy HCOOH           H2O2            (HCOOH)2       
 *O              *OH             O3              C(gr)           H2O(cr)        

 NOTE. WEIGHT FRACTION OF FUEL IN TOTAL FUELS AND OF OXIDANT IN TOTAL OXIDANTS






 WARNING!!  ASSIGNED pip =   0.00000 IS NOT PERMITTED
 TO BE LESS THAN  Pinj/Pc =  1.00001. POINT OMITTED (ROCKET)





              THEORETICAL ROCKET PERFORMANCE ASSUMING EQUILIBRIUM

            COMPOSITION DURING EXPANSION FROM FINITE AREA COMBUSTOR

 Pin =   226.4 PSIA
 Ac/At =161.9835      Pinj/Pinf =  1.000005
 CASE =                

             REACTANT                    WT FRACTION      ENERGY      TEMP
                                          (SEE NOTE)     KJ/KG-MOL      K  
 OXIDANT     O2(L)                        1.0000000    -12979.000     90.170
 FUEL        PMMA                         1.0000000   -442140.000    293.150

 O/F=   57.19687  %FUEL=  1.718306  R,EQ.RATIO= 0.038899  PHI,EQ.RATIO= 0.033528

                 INJECTOR  COMB END  THROAT
 Pinj/P            1.0000   1.0000   1.8276
 P, BAR            15.610   15.610   8.5411
 T, K              338.18   338.18   301.94
 RHO, KG/CU M    1.7886 1 1.7886 1 1.1088 1
 H, KJ/KG         -474.52  -474.53  -524.07
 U, KJ/KG         -561.80  -561.80  -601.10
 G, KJ/KG        -2450.48 -2450.48 -2288.28
 S, KJ/(KG)(K)     5.8429   5.8429   5.8429

 M, (1/n)          32.218   32.218   32.590
 MW, MOL WT        32.021   32.021   32.021
 (dLV/dLP)t      -1.01623 -1.01623 -1.00465
 (dLV/dLT)p        1.2443   1.2443   1.0813
 Cp, KJ/(KG)(K)    1.8930   1.8930   1.3126
 GAMMAs            1.2420   1.2420   1.2863
 SON VEL,M/SEC      329.2    329.2    314.8
 MACH NUMBER        0.000    0.003    1.000

 PERFORMANCE PARAMETERS

 Ae/At                      203.24   1.0000
 CSTAR, M/SEC                447.3    447.3
 CF                         0.0021   0.7038
 Ivac, M/SEC               90899.3    559.5
 Isp, M/SEC                    1.0    314.8


 MOLE FRACTIONS

 *CO2             0.02748  0.02748  0.02748
 H2O              0.01587  0.01587  0.00455
 *O2              0.95054  0.95054  0.95054
 H2O(L)           0.00611  0.00611  0.01743

  * THERMODYNAMIC PROPERTIES FITTED TO 20000.K

    PRODUCTS WHICH WERE CONSIDERED BUT WHOSE MOLE FRACTIONS
    WERE LESS THAN 5.000000E-06 FOR ALL ASSIGNED CONDITIONS

 *C              *CH             CH2             CH3             CH2OH          
 CH3O            CH4             CH3OH           CH3OOH          *CO            
 COOH            *C2             C2H             C2H2,acetylene  C2H2,vinylidene
 CH2CO,ketene    O(CH)2O         HO(CO)2OH       C2H3,vinyl      CH3CO,acetyl   
 C2H4            C2H4O,ethylen-o CH3CHO,ethanal  CH3COOH         OHCH2COOH      
 C2H5            C2H6            C2H5OH          CH3OCH3         CH3O2CH3       
 C2O             *C3             C3H3,1-propynl  C3H3,2-propynl  C3H4,allene    
 C3H4,propyne    C3H4,cyclo-     C3H5,allyl      C3H6,propylene  C3H6,cyclo-    
 C3H6O,propylox  C3H6O,acetone   C3H6O,propanal  C3H7,n-propyl   C3H7,i-propyl  
 C3H8            C3H8O,1propanol C3H8O,2propanol C3O2            *C4            
 C4H2,butadiyne  C4H4,1,3-cyclo- C4H6,butadiene  C4H6,1butyne    C4H6,2butyne   
 C4H6,cyclo-     C4H8,1-butene   C4H8,cis2-buten C4H8,tr2-butene C4H8,isobutene 
 C4H8,cyclo-     (CH3COOH)2      C4H9,n-butyl    C4H9,i-butyl    C4H9,s-butyl   
 C4H9,t-butyl    C4H10,n-butane  C4H10,isobutane *C5             C5H6,1,3cyclo- 
 C5H8,cyclo-     C5H10,1-pentene C5H10,cyclo-    C5H11,pentyl    C5H11,t-pentyl 
 C5H12,n-pentane C5H12,i-pentane CH3C(CH3)2CH3   C6H2            C6H5,phenyl    
 C6H5O,phenoxy   C6H6            C6H5OH,phenol   C6H10,cyclo-    C6H12,1-hexene 
 C6H12,cyclo-    C6H13,n-hexyl   C6H14,n-hexane  C7H7,benzyl     C7H8           
 C7H8O,cresol-mx C7H14,1-heptene C7H15,n-heptyl  C7H16,n-heptane C7H16,2-methylh
 C8H8,styrene    C8H10,ethylbenz C8H16,1-octene  C8H17,n-octyl   C8H18,n-octane 
 C8H18,isooctane C9H19,n-nonyl   C10H8,naphthale C10H21,n-decyl  C12H9,o-bipheny
 C12H10,biphenyl *H              HCO             HCCO            HO2            
 *H2             HCHO,formaldehy HCOOH           H2O2            (HCOOH)2       
 *O              *OH             O3              C(gr)           H2O(cr)        

 NOTE. WEIGHT FRACTION OF FUEL IN TOTAL FUELS AND OF OXIDANT IN TOTAL OXIDANTS






 WARNING!!  ASSIGNED pip =   0.00000 IS NOT PERMITTED
 TO BE LESS THAN  Pinj/Pc =  1.00001. POINT OMITTED (ROCKET)





              THEORETICAL ROCKET PERFORMANCE ASSUMING EQUILIBRIUM

            COMPOSITION DURING EXPANSION FROM FINITE AREA COMBUSTOR

 Pin =   226.4 PSIA
 Ac/At =161.9835      Pinj/Pinf =  1.000005
 CASE =                

             REACTANT                    WT FRACTION      ENERGY      TEMP
                                          (SEE NOTE)     KJ/KG-MOL      K  
 OXIDANT     O2(L)                        1.0000000    -12979.000     90.170
 FUEL        PMMA                         1.0000000   -442140.000    293.150

 O/F=   57.19687  %FUEL=  1.718306  R,EQ.RATIO= 0.038899  PHI,EQ.RATIO= 0.033528

                 INJECTOR  COMB END  THROAT
 Pinj/P            1.0000   1.0000   1.8276
 P, BAR            15.610   15.610   8.5411
 T, K              338.18   338.18   301.94
 RHO, KG/CU M    1.7886 1 1.7886 1 1.1088 1
 H, KJ/KG         -474.52  -474.53  -524.07
 U, KJ/KG         -561.80  -561.80  -601.10
 G, KJ/KG        -2450.48 -2450.48 -2288.28
 S, KJ/(KG)(K)     5.8429   5.8429   5.8429

 M, (1/n)          32.218   32.218   32.590
 MW, MOL WT        32.021   32.021   32.021
 (dLV/dLP)t      -1.01623 -1.01623 -1.00465
 (dLV/dLT)p        1.2443   1.2443   1.0813
 Cp, KJ/(KG)(K)    1.8930   1.8930   1.3126
 GAMMAs            1.2420   1.2420   1.2863
 SON VEL,M/SEC      329.2    329.2    314.8
 MACH NUMBER        0.000    0.003    1.000

 PERFORMANCE PARAMETERS

 Ae/At                      203.24   1.0000
 CSTAR, M/SEC                447.3    447.3
 CF                         0.0021   0.7038
 Ivac, M/SEC               90899.3    559.5
 Isp, M/SEC                    1.0    314.8


 MOLE FRACTIONS

 *CO2             0.02748  0.02748  0.02748
 H2O              0.01587  0.01587  0.00455
 *O2              0.95054  0.95054  0.95054
 H2O(L)           0.00611  0.00611  0.01743

  * THERMODYNAMIC PROPERTIES FITTED TO 20000.K

    PRODUCTS WHICH WERE CONSIDERED BUT WHOSE MOLE FRACTIONS
    WERE LESS THAN 5.000000E-06 FOR ALL ASSIGNED CONDITIONS

 *C              *CH             CH2             CH3             CH2OH          
 CH3O            CH4             CH3OH           CH3OOH          *CO            
 COOH            *C2             C2H             C2H2,acetylene  C2H2,vinylidene
 CH2CO,ketene    O(CH)2O         HO(CO)2OH       C2H3,vinyl      CH3CO,acetyl   
 C2H4            C2H4O,ethylen-o CH3CHO,ethanal  CH3COOH         OHCH2COOH      
 C2H5            C2H6            C2H5OH          CH3OCH3         CH3O2CH3       
 C2O             *C3             C3H3,1-propynl  C3H3,2-propynl  C3H4,allene    
 C3H4,propyne    C3H4,cyclo-     C3H5,allyl      C3H6,propylene  C3H6,cyclo-    
 C3H6O,propylox  C3H6O,acetone   C3H6O,propanal  C3H7,n-propyl   C3H7,i-propyl  
 C3H8            C3H8O,1propanol C3H8O,2propanol C3O2            *C4            
 C4H2,butadiyne  C4H4,1,3-cyclo- C4H6,butadiene  C4H6,1butyne    C4H6,2butyne   
 C4H6,cyclo-     C4H8,1-butene   C4H8,cis2-buten C4H8,tr2-butene C4H8,isobutene 
 C4H8,cyclo-     (CH3COOH)2      C4H9,n-butyl    C4H9,i-butyl    C4H9,s-butyl   
 C4H9,t-butyl    C4H10,n-butane  C4H10,isobutane *C5             C5H6,1,3cyclo- 
 C5H8,cyclo-     C5H10,1-pentene C5H10,cyclo-    C5H11,pentyl    C5H11,t-pentyl 
 C5H12,n-pentane C5H12,i-pentane CH3C(CH3)2CH3   C6H2            C6H5,phenyl    
 C6H5O,phenoxy   C6H6            C6H5OH,phenol   C6H10,cyclo-    C6H12,1-hexene 
 C6H12,cyclo-    C6H13,n-hexyl   C6H14,n-hexane  C7H7,benzyl     C7H8           
 C7H8O,cresol-mx C7H14,1-heptene C7H15,n-heptyl  C7H16,n-heptane C7H16,2-methylh
 C8H8,styrene    C8H10,ethylbenz C8H16,1-octene  C8H17,n-octyl   C8H18,n-octane 
 C8H18,isooctane C9H19,n-nonyl   C10H8,naphthale C10H21,n-decyl  C12H9,o-bipheny
 C12H10,biphenyl *H              HCO             HCCO            HO2            
 *H2             HCHO,formaldehy HCOOH           H2O2            (HCOOH)2       
 *O              *OH             O3              C(gr)           H2O(cr)        

 NOTE. WEIGHT FRACTION OF FUEL IN TOTAL FUELS AND OF OXIDANT IN TOTAL OXIDANTS






 WARNING!!  ASSIGNED pip =   0.00000 IS NOT PERMITTED
 TO BE LESS THAN  Pinj/Pc =  1.00001. POINT OMITTED (ROCKET)





              THEORETICAL ROCKET PERFORMANCE ASSUMING EQUILIBRIUM

            COMPOSITION DURING EXPANSION FROM FINITE AREA COMBUSTOR

 Pin =   226.4 PSIA
 Ac/At =161.9835      Pinj/Pinf =  1.000005
 CASE =                

             REACTANT                    WT FRACTION      ENERGY      TEMP
                                          (SEE NOTE)     KJ/KG-MOL      K  
 OXIDANT     O2(L)                        1.0000000    -12979.000     90.170
 FUEL        PMMA                         1.0000000   -442140.000    293.150

 O/F=   57.19687  %FUEL=  1.718306  R,EQ.RATIO= 0.038899  PHI,EQ.RATIO= 0.033528

                 INJECTOR  COMB END  THROAT
 Pinj/P            1.0000   1.0000   1.8276
 P, BAR            15.610   15.610   8.5411
 T, K              338.18   338.18   301.94
 RHO, KG/CU M    1.7886 1 1.7886 1 1.1088 1
 H, KJ/KG         -474.52  -474.53  -524.07
 U, KJ/KG         -561.80  -561.80  -601.10
 G, KJ/KG        -2450.48 -2450.48 -2288.28
 S, KJ/(KG)(K)     5.8429   5.8429   5.8429

 M, (1/n)          32.218   32.218   32.590
 MW, MOL WT        32.021   32.021   32.021
 (dLV/dLP)t      -1.01623 -1.01623 -1.00465
 (dLV/dLT)p        1.2443   1.2443   1.0813
 Cp, KJ/(KG)(K)    1.8930   1.8930   1.3126
 GAMMAs            1.2420   1.2420   1.2863
 SON VEL,M/SEC      329.2    329.2    314.8
 MACH NUMBER        0.000    0.003    1.000

 PERFORMANCE PARAMETERS

 Ae/At                      203.24   1.0000
 CSTAR, M/SEC                447.3    447.3
 CF                         0.0021   0.7038
 Ivac, M/SEC               90899.3    559.5
 Isp, M/SEC                    1.0    314.8


 MOLE FRACTIONS

 *CO2             0.02748  0.02748  0.02748
 H2O              0.01587  0.01587  0.00455
 *O2              0.95054  0.95054  0.95054
 H2O(L)           0.00611  0.00611  0.01743

  * THERMODYNAMIC PROPERTIES FITTED TO 20000.K

    PRODUCTS WHICH WERE CONSIDERED BUT WHOSE MOLE FRACTIONS
    WERE LESS THAN 5.000000E-06 FOR ALL ASSIGNED CONDITIONS

 *C              *CH             CH2             CH3             CH2OH          
 CH3O            CH4             CH3OH           CH3OOH          *CO            
 COOH            *C2             C2H             C2H2,acetylene  C2H2,vinylidene
 CH2CO,ketene    O(CH)2O         HO(CO)2OH       C2H3,vinyl      CH3CO,acetyl   
 C2H4            C2H4O,ethylen-o CH3CHO,ethanal  CH3COOH         OHCH2COOH      
 C2H5            C2H6            C2H5OH          CH3OCH3         CH3O2CH3       
 C2O             *C3             C3H3,1-propynl  C3H3,2-propynl  C3H4,allene    
 C3H4,propyne    C3H4,cyclo-     C3H5,allyl      C3H6,propylene  C3H6,cyclo-    
 C3H6O,propylox  C3H6O,acetone   C3H6O,propanal  C3H7,n-propyl   C3H7,i-propyl  
 C3H8            C3H8O,1propanol C3H8O,2propanol C3O2            *C4            
 C4H2,butadiyne  C4H4,1,3-cyclo- C4H6,butadiene  C4H6,1butyne    C4H6,2butyne   
 C4H6,cyclo-     C4H8,1-butene   C4H8,cis2-buten C4H8,tr2-butene C4H8,isobutene 
 C4H8,cyclo-     (CH3COOH)2      C4H9,n-butyl    C4H9,i-butyl    C4H9,s-butyl   
 C4H9,t-butyl    C4H10,n-butane  C4H10,isobutane *C5             C5H6,1,3cyclo- 
 C5H8,cyclo-     C5H10,1-pentene C5H10,cyclo-    C5H11,pentyl    C5H11,t-pentyl 
 C5H12,n-pentane C5H12,i-pentane CH3C(CH3)2CH3   C6H2            C6H5,phenyl    
 C6H5O,phenoxy   C6H6            C6H5OH,phenol   C6H10,cyclo-    C6H12,1-hexene 
 C6H12,cyclo-    C6H13,n-hexyl   C6H14,n-hexane  C7H7,benzyl     C7H8           
 C7H8O,cresol-mx C7H14,1-heptene C7H15,n-heptyl  C7H16,n-heptane C7H16,2-methylh
 C8H8,styrene    C8H10,ethylbenz C8H16,1-octene  C8H17,n-octyl   C8H18,n-octane 
 C8H18,isooctane C9H19,n-nonyl   C10H8,naphthale C10H21,n-decyl  C12H9,o-bipheny
 C12H10,biphenyl *H              HCO             HCCO            HO2            
 *H2             HCHO,formaldehy HCOOH           H2O2            (HCOOH)2       
 *O              *OH             O3              C(gr)           H2O(cr)        

 NOTE. WEIGHT FRACTION OF FUEL IN TOTAL FUELS AND OF OXIDANT IN TOTAL OXIDANTS






 WARNING!!  ASSIGNED pip =   0.00000 IS NOT PERMITTED
 TO BE LESS THAN  Pinj/Pc =  1.00001. POINT OMITTED (ROCKET)





              THEORETICAL ROCKET PERFORMANCE ASSUMING EQUILIBRIUM

            COMPOSITION DURING EXPANSION FROM FINITE AREA COMBUSTOR

 Pin =   226.4 PSIA
 Ac/At =161.9835      Pinj/Pinf =  1.000005
 CASE =                

             REACTANT                    WT FRACTION      ENERGY      TEMP
                                          (SEE NOTE)     KJ/KG-MOL      K  
 OXIDANT     O2(L)                        1.0000000    -12979.000     90.170
 FUEL        PMMA                         1.0000000   -442140.000    293.150

 O/F=   57.19687  %FUEL=  1.718306  R,EQ.RATIO= 0.038899  PHI,EQ.RATIO= 0.033528

                 INJECTOR  COMB END  THROAT
 Pinj/P            1.0000   1.0000   1.8276
 P, BAR            15.610   15.610   8.5411
 T, K              338.18   338.18   301.94
 RHO, KG/CU M    1.7886 1 1.7886 1 1.1088 1
 H, KJ/KG         -474.52  -474.53  -524.07
 U, KJ/KG         -561.80  -561.80  -601.10
 G, KJ/KG        -2450.48 -2450.48 -2288.28
 S, KJ/(KG)(K)     5.8429   5.8429   5.8429

 M, (1/n)          32.218   32.218   32.590
 MW, MOL WT        32.021   32.021   32.021
 (dLV/dLP)t      -1.01623 -1.01623 -1.00465
 (dLV/dLT)p        1.2443   1.2443   1.0813
 Cp, KJ/(KG)(K)    1.8930   1.8930   1.3126
 GAMMAs            1.2420   1.2420   1.2863
 SON VEL,M/SEC      329.2    329.2    314.8
 MACH NUMBER        0.000    0.003    1.000

 PERFORMANCE PARAMETERS

 Ae/At                      203.24   1.0000
 CSTAR, M/SEC                447.3    447.3
 CF                         0.0021   0.7038
 Ivac, M/SEC               90899.3    559.5
 Isp, M/SEC                    1.0    314.8


 MOLE FRACTIONS

 *CO2             0.02748  0.02748  0.02748
 H2O              0.01587  0.01587  0.00455
 *O2              0.95054  0.95054  0.95054
 H2O(L)           0.00611  0.00611  0.01743

  * THERMODYNAMIC PROPERTIES FITTED TO 20000.K

    PRODUCTS WHICH WERE CONSIDERED BUT WHOSE MOLE FRACTIONS
    WERE LESS THAN 5.000000E-06 FOR ALL ASSIGNED CONDITIONS

 *C              *CH             CH2             CH3             CH2OH          
 CH3O            CH4             CH3OH           CH3OOH          *CO            
 COOH            *C2             C2H             C2H2,acetylene  C2H2,vinylidene
 CH2CO,ketene    O(CH)2O         HO(CO)2OH       C2H3,vinyl      CH3CO,acetyl   
 C2H4            C2H4O,ethylen-o CH3CHO,ethanal  CH3COOH         OHCH2COOH      
 C2H5            C2H6            C2H5OH          CH3OCH3         CH3O2CH3       
 C2O             *C3             C3H3,1-propynl  C3H3,2-propynl  C3H4,allene    
 C3H4,propyne    C3H4,cyclo-     C3H5,allyl      C3H6,propylene  C3H6,cyclo-    
 C3H6O,propylox  C3H6O,acetone   C3H6O,propanal  C3H7,n-propyl   C3H7,i-propyl  
 C3H8            C3H8O,1propanol C3H8O,2propanol C3O2            *C4            
 C4H2,butadiyne  C4H4,1,3-cyclo- C4H6,butadiene  C4H6,1butyne    C4H6,2butyne   
 C4H6,cyclo-     C4H8,1-butene   C4H8,cis2-buten C4H8,tr2-butene C4H8,isobutene 
 C4H8,cyclo-     (CH3COOH)2      C4H9,n-butyl    C4H9,i-butyl    C4H9,s-butyl   
 C4H9,t-butyl    C4H10,n-butane  C4H10,isobutane *C5             C5H6,1,3cyclo- 
 C5H8,cyclo-     C5H10,1-pentene C5H10,cyclo-    C5H11,pentyl    C5H11,t-pentyl 
 C5H12,n-pentane C5H12,i-pentane CH3C(CH3)2CH3   C6H2            C6H5,phenyl    
 C6H5O,phenoxy   C6H6            C6H5OH,phenol   C6H10,cyclo-    C6H12,1-hexene 
 C6H12,cyclo-    C6H13,n-hexyl   C6H14,n-hexane  C7H7,benzyl     C7H8           
 C7H8O,cresol-mx C7H14,1-heptene C7H15,n-heptyl  C7H16,n-heptane C7H16,2-methylh
 C8H8,styrene    C8H10,ethylbenz C8H16,1-octene  C8H17,n-octyl   C8H18,n-octane 
 C8H18,isooctane C9H19,n-nonyl   C10H8,naphthale C10H21,n-decyl  C12H9,o-bipheny
 C12H10,biphenyl *H              HCO             HCCO            HO2            
 *H2             HCHO,formaldehy HCOOH           H2O2            (HCOOH)2       
 *O              *OH             O3              C(gr)           H2O(cr)        

 NOTE. WEIGHT FRACTION OF FUEL IN TOTAL FUELS AND OF OXIDANT IN TOTAL OXIDANTS






 WARNING!!  ASSIGNED pip =   0.00000 IS NOT PERMITTED
 TO BE LESS THAN  Pinj/Pc =  1.00001. POINT OMITTED (ROCKET)





              THEORETICAL ROCKET PERFORMANCE ASSUMING EQUILIBRIUM

            COMPOSITION DURING EXPANSION FROM FINITE AREA COMBUSTOR

 Pin =   226.4 PSIA
 Ac/At =161.9835      Pinj/Pinf =  1.000005
 CASE =                

             REACTANT                    WT FRACTION      ENERGY      TEMP
                                          (SEE NOTE)     KJ/KG-MOL      K  
 OXIDANT     O2(L)                        1.0000000    -12979.000     90.170
 FUEL        PMMA                         1.0000000   -442140.000    293.150

 O/F=   57.19687  %FUEL=  1.718306  R,EQ.RATIO= 0.038899  PHI,EQ.RATIO= 0.033528

                 INJECTOR  COMB END  THROAT
 Pinj/P            1.0000   1.0000   1.8276
 P, BAR            15.610   15.610   8.5411
 T, K              338.18   338.18   301.94
 RHO, KG/CU M    1.7886 1 1.7886 1 1.1088 1
 H, KJ/KG         -474.52  -474.53  -524.07
 U, KJ/KG         -561.80  -561.80  -601.10
 G, KJ/KG        -2450.48 -2450.48 -2288.28
 S, KJ/(KG)(K)     5.8429   5.8429   5.8429

 M, (1/n)          32.218   32.218   32.590
 MW, MOL WT        32.021   32.021   32.021
 (dLV/dLP)t      -1.01623 -1.01623 -1.00465
 (dLV/dLT)p        1.2443   1.2443   1.0813
 Cp, KJ/(KG)(K)    1.8930   1.8930   1.3126
 GAMMAs            1.2420   1.2420   1.2863
 SON VEL,M/SEC      329.2    329.2    314.8
 MACH NUMBER        0.000    0.003    1.000

 PERFORMANCE PARAMETERS

 Ae/At                      203.24   1.0000
 CSTAR, M/SEC                447.3    447.3
 CF                         0.0021   0.7038
 Ivac, M/SEC               90899.3    559.5
 Isp, M/SEC                    1.0    314.8


 MOLE FRACTIONS

 *CO2             0.02748  0.02748  0.02748
 H2O              0.01587  0.01587  0.00455
 *O2              0.95054  0.95054  0.95054
 H2O(L)           0.00611  0.00611  0.01743

  * THERMODYNAMIC PROPERTIES FITTED TO 20000.K

    PRODUCTS WHICH WERE CONSIDERED BUT WHOSE MOLE FRACTIONS
    WERE LESS THAN 5.000000E-06 FOR ALL ASSIGNED CONDITIONS

 *C              *CH             CH2             CH3             CH2OH          
 CH3O            CH4             CH3OH           CH3OOH          *CO            
 COOH            *C2             C2H             C2H2,acetylene  C2H2,vinylidene
 CH2CO,ketene    O(CH)2O         HO(CO)2OH       C2H3,vinyl      CH3CO,acetyl   
 C2H4            C2H4O,ethylen-o CH3CHO,ethanal  CH3COOH         OHCH2COOH      
 C2H5            C2H6            C2H5OH          CH3OCH3         CH3O2CH3       
 C2O             *C3             C3H3,1-propynl  C3H3,2-propynl  C3H4,allene    
 C3H4,propyne    C3H4,cyclo-     C3H5,allyl      C3H6,propylene  C3H6,cyclo-    
 C3H6O,propylox  C3H6O,acetone   C3H6O,propanal  C3H7,n-propyl   C3H7,i-propyl  
 C3H8            C3H8O,1propanol C3H8O,2propanol C3O2            *C4            
 C4H2,butadiyne  C4H4,1,3-cyclo- C4H6,butadiene  C4H6,1butyne    C4H6,2butyne   
 C4H6,cyclo-     C4H8,1-butene   C4H8,cis2-buten C4H8,tr2-butene C4H8,isobutene 
 C4H8,cyclo-     (CH3COOH)2      C4H9,n-butyl    C4H9,i-butyl    C4H9,s-butyl   
 C4H9,t-butyl    C4H10,n-butane  C4H10,isobutane *C5             C5H6,1,3cyclo- 
 C5H8,cyclo-     C5H10,1-pentene C5H10,cyclo-    C5H11,pentyl    C5H11,t-pentyl 
 C5H12,n-pentane C5H12,i-pentane CH3C(CH3)2CH3   C6H2            C6H5,phenyl    
 C6H5O,phenoxy   C6H6            C6H5OH,phenol   C6H10,cyclo-    C6H12,1-hexene 
 C6H12,cyclo-    C6H13,n-hexyl   C6H14,n-hexane  C7H7,benzyl     C7H8           
 C7H8O,cresol-mx C7H14,1-heptene C7H15,n-heptyl  C7H16,n-heptane C7H16,2-methylh
 C8H8,styrene    C8H10,ethylbenz C8H16,1-octene  C8H17,n-octyl   C8H18,n-octane 
 C8H18,isooctane C9H19,n-nonyl   C10H8,naphthale C10H21,n-decyl  C12H9,o-bipheny
 C12H10,biphenyl *H              HCO             HCCO            HO2            
 *H2             HCHO,formaldehy HCOOH           H2O2            (HCOOH)2       
 *O              *OH             O3              C(gr)           H2O(cr)        

 NOTE. WEIGHT FRACTION OF FUEL IN TOTAL FUELS AND OF OXIDANT IN TOTAL OXIDANTS





   4    6     160.145     -13.943    -300.273    -110.128
 PHASE CHANGE, REPLACE  H2O(L)         WITH  H2O(cr)        
   4    4      83.143     -15.791    -574.563    -208.674
 REMOVE  H2O(cr)        

 SINGULAR MATRIX, ITERATION  0  VARIABLE  3(EQLBRM)

  50 ITERATIONS DID NOT SATISFY CONVERGENCE
                REQUIREMENTS FOR THE POINT    4 (EQLBRM)

 CALCULATIONS STOPPED AFTER POINT  3(EQLBRM)





              THEORETICAL ROCKET PERFORMANCE ASSUMING EQUILIBRIUM

            COMPOSITION DURING EXPANSION FROM FINITE AREA COMBUSTOR

 Pin =   226.4 PSIA
 Ac/At =161.9835      Pinj/Pinf =  1.000005
 CASE =                

             REACTANT                    WT FRACTION      ENERGY      TEMP
                                          (SEE NOTE)     KJ/KG-MOL      K  
 OXIDANT     O2(L)                        1.0000000    -12979.000     90.170
 FUEL        PMMA                         1.0000000   -442140.000    293.150

 O/F=   57.19687  %FUEL=  1.718306  R,EQ.RATIO= 0.038899  PHI,EQ.RATIO= 0.033528

                 INJECTOR  COMB END  THROAT
 Pinj/P            1.0000   1.0000   1.8276
 P, BAR            15.610   15.610   8.5411
 T, K              338.18   338.18   301.94
 RHO, KG/CU M    1.7886 1 1.7886 1 1.1088 1
 H, KJ/KG         -474.52  -474.53  -524.07
 U, KJ/KG         -561.80  -561.80  -601.10
 G, KJ/KG        -2450.48 -2450.48 -2288.28
 S, KJ/(KG)(K)     5.8429   5.8429   5.8429

 M, (1/n)          32.218   32.218   32.590
 MW, MOL WT        32.021   32.021   32.021
 (dLV/dLP)t      -1.01623 -1.01623 -1.00465
 (dLV/dLT)p        1.2443   1.2443   1.0813
 Cp, KJ/(KG)(K)    1.8930   1.8930   1.3126
 GAMMAs            1.2420   1.2420   1.2863
 SON VEL,M/SEC      329.2    329.2    314.8
 MACH NUMBER        0.000    0.003    1.000

 PERFORMANCE PARAMETERS

 Ae/At                      203.24   407.99
 CSTAR, M/SEC                447.3    447.3
 CF                         0.0021   0.7038
 Ivac, M/SEC               90899.3    559.5
 Isp, M/SEC                    1.0    314.8


 MOLE FRACTIONS

 *CO2             0.02748  0.02748  0.02748
 H2O              0.01587  0.01587  0.00455
 *O2              0.95054  0.95054  0.95054
 H2O(L)           0.00611  0.00611  0.01743

  * THERMODYNAMIC PROPERTIES FITTED TO 20000.K

    PRODUCTS WHICH WERE CONSIDERED BUT WHOSE MOLE FRACTIONS
    WERE LESS THAN 5.000000E-06 FOR ALL ASSIGNED CONDITIONS

 *C              *CH             CH2             CH3             CH2OH          
 CH3O            CH4             CH3OH           CH3OOH          *CO            
 COOH            *C2             C2H             C2H2,acetylene  C2H2,vinylidene
 CH2CO,ketene    O(CH)2O         HO(CO)2OH       C2H3,vinyl      CH3CO,acetyl   
 C2H4            C2H4O,ethylen-o CH3CHO,ethanal  CH3COOH         OHCH2COOH      
 C2H5            C2H6            C2H5OH          CH3OCH3         CH3O2CH3       
 C2O             *C3             C3H3,1-propynl  C3H3,2-propynl  C3H4,allene    
 C3H4,propyne    C3H4,cyclo-     C3H5,allyl      C3H6,propylene  C3H6,cyclo-    
 C3H6O,propylox  C3H6O,acetone   C3H6O,propanal  C3H7,n-propyl   C3H7,i-propyl  
 C3H8            C3H8O,1propanol C3H8O,2propanol C3O2            *C4            
 C4H2,butadiyne  C4H4,1,3-cyclo- C4H6,butadiene  C4H6,1butyne    C4H6,2butyne   
 C4H6,cyclo-     C4H8,1-butene   C4H8,cis2-buten C4H8,tr2-butene C4H8,isobutene 
 C4H8,cyclo-     (CH3COOH)2      C4H9,n-butyl    C4H9,i-butyl    C4H9,s-butyl   
 C4H9,t-butyl    C4H10,n-butane  C4H10,isobutane *C5             C5H6,1,3cyclo- 
 C5H8,cyclo-     C5H10,1-pentene C5H10,cyclo-    C5H11,pentyl    C5H11,t-pentyl 
 C5H12,n-pentane C5H12,i-pentane CH3C(CH3)2CH3   C6H2            C6H5,phenyl    
 C6H5O,phenoxy   C6H6            C6H5OH,phenol   C6H10,cyclo-    C6H12,1-hexene 
 C6H12,cyclo-    C6H13,n-hexyl   C6H14,n-hexane  C7H7,benzyl     C7H8           
 C7H8O,cresol-mx C7H14,1-heptene C7H15,n-heptyl  C7H16,n-heptane C7H16,2-methylh
 C8H8,styrene    C8H10,ethylbenz C8H16,1-octene  C8H17,n-octyl   C8H18,n-octane 
 C8H18,isooctane C9H19,n-nonyl   C10H8,naphthale C10H21,n-decyl  C12H9,o-bipheny
 C12H10,biphenyl *H              HCO             HCCO            HO2            
 *H2             HCHO,formaldehy HCOOH           H2O2            (HCOOH)2       
 *O              *OH             O3              C(gr)           H2O(cr)        

 NOTE. WEIGHT FRACTION OF FUEL IN TOTAL FUELS AND OF OXIDANT IN TOTAL OXIDANTS



